A:CIA501
  --CCDC--021119    3D                              

 46 51  0  0  0  0  0  0  0  0999 V2000
   42.8232   37.8755   10.1470 C      0
   42.9673   38.2715   11.5040 C      0
   43.8214   37.6715   12.4150 C      0
   44.5684   36.6025   11.8900 C      0
   45.5684   35.7206   12.5090 C      0
   45.9514   34.8766   11.5180 C      0
   45.3083   35.1436   10.3960 N      0
   44.4443   36.1936   10.5540 C      0
   43.5892   36.7975    9.6480 C      0
   46.9654   33.8327   11.7720 C      0
   47.2595   33.5737   13.1710 N      0
   48.1395   32.5747   13.3970 C      0
   48.6665   31.9317   12.5250 O      0
   48.4946   32.2387   14.7760 C      0
   48.1276   33.1787   15.8350 N      0
   47.2506   34.1526   15.6280 C      0
   46.8916   34.9776   16.4840 O      0
   46.6315   34.3076   14.2750 C      0
   46.0985   35.7006   13.9150 C      0
   48.7177   33.0517   17.1550 C      0
   48.2074   34.2966   10.9340 C      0
   48.7373   33.4807    9.8960 C      0
   49.8233   33.8397    9.1280 C      0
   50.4043   35.0556    9.4070 C      0
   51.4813   35.6156    8.7840 O      0
   51.8094   36.6885    9.6600 C      0
   50.6594   37.0255   10.4910 O      0
   49.9314   35.8666   10.3900 C      0
   48.8294   35.5116   11.1710 C      0
   42.1263   38.3998    9.4949 H      0
   45.4381   34.6351    9.5272 H      0
   43.5116   36.4627    8.6147 H      0
   46.6002   32.9047   11.3344 H      0
   49.5765   32.1203   14.8107 H      0
   48.0176   31.2879   15.0093 H      0
   46.1036   36.5578   14.5867 H      0
   49.7997   33.1495   17.0799 H      0
   48.3267   33.8337   17.8042 H      0
   48.4694   32.0765   17.5714 H      0
   48.2596   32.5222    9.6982 H      0
   50.2034   33.1928    8.3387 H      0
   52.0964   37.5590    9.0719 H      0
   52.6404   36.3915   10.2981 H      0
   48.4657   36.1777   11.9521 H      0
   42.3626   39.1071   11.8532 H      0
   43.9068   38.0000   13.4498 H      0
  1  2  4
  1  9  4
  2  3  4
  3  4  4
  4  5  1
  4  8  4
  5  6  2
  5 19  1
  6  7  1
  6 10  1
  7  8  1
  8  9  4
 10 11  1
 10 21  1
 11 12  1
 11 18  1
 12 13  2
 12 14  1
 14 15  1
 15 16  1
 15 20  1
 16 17  2
 16 18  1
 18 19  2
 21 22  4
 21 29  4
 22 23  4
 23 24  4
 24 25  1
 24 28  4
 25 26  1
 26 27  1
 27 28  1
 28 29  4
  1 30  1
  7 31  1
  9 32  1
 10 33  1
 14 34  1
 14 35  1
 19 36  1
 20 37  1
 20 38  1
 20 39  1
 22 40  1
 23 41  1
 26 42  1
 26 43  1
 29 44  1
  2 45  1
  3 46  1
M  END
$$$$
