A:CL504
  --CCDC--021119    3D                              

  2  1  0  0  0  0  0  0  0  0999 V2000
   78.7172   -4.6132   40.1232 Cl     0
   79.9912   -4.6132   40.1232 H      0
  1  2  1
M  END
$$$$
A:CL505
  --CCDC--021119    3D                              

  2  1  0  0  0  0  0  0  0  0999 V2000
  106.3063   -7.4813   52.9152 Cl     0
  107.5803   -7.4813   52.9152 H      0
  1  2  1
M  END
$$$$
A:CL506
  --CCDC--021119    3D                              

  2  1  0  0  0  0  0  0  0  0999 V2000
   77.3061    3.9021   55.1472 Cl     0
   78.5801    3.9021   55.1472 H      0
  1  2  1
M  END
$$$$
A:CL507
  --CCDC--021119    3D                              

  2  1  0  0  0  0  0  0  0  0999 V2000
   74.7890   15.3876  -14.9731 Cl     0
   76.0630   15.3876  -14.9731 H      0
  1  2  1
M  END
$$$$
A:TDP601
  --CCDC--021119    3D                              

 42 43  0  0  0  0  0  0  0  0999 V2000
   77.0511    0.6410   11.1880 N      0
   77.3001    1.8181   11.7370 C      0
   77.4421    1.9951   13.2771 C      0
   77.3691    2.9111   10.9250 N      0
   77.2911    2.8511    9.5620 C      0
   77.4311    4.0191    8.8930 N      0
   77.0311    1.5861    8.9620 C      0
   76.8861    0.5040    9.8490 C      0
   76.8851    1.3991    7.4130 C      0
   75.6061    2.0071    6.9640 N      0
   75.7491    3.2911    6.3050 C      0
   74.0040    3.6321    5.8920 S      0
   73.3230    2.1501    6.5060 C      0
   74.3880    1.4031    7.0040 C      0
   74.2600   -0.0260    7.6160 C      0
   71.8259    1.9031    6.4000 C      0
   71.0469    2.9361    7.2280 C      0
   69.6358    2.7481    7.1180 O      0
   68.6348    3.7431    7.6910 P      0
   68.7588    5.0372    6.7470 O      0
   69.0578    4.1692    9.0430 O      5
   67.2877    3.1101    7.5310 O      5
   68.4988    5.1532    5.1220 P      0
   69.8368    4.8262    4.4440 O      5
   67.4067    4.1632    4.7500 O      5
   68.0878    6.5582    4.8500 O      5
   78.2638    1.3788   13.6390 H      0
   77.6447    3.0405   13.5051 H      0
   76.5173    1.6898   13.7643 H      0
   76.6426    3.8829    6.1117 H      0
   71.2983    3.9345    6.8730 H      0
   71.3350    2.8394    8.2738 H      0
   71.6010    0.9042    6.7709 H      0
   71.5237    1.9795    5.3566 H      0
   74.5840   -0.0061    8.6555 H      0
   73.2218   -0.3508    7.5656 H      0
   74.8848   -0.7188    7.0543 H      0
   76.6330   -0.4760    9.4472 H      0
   77.3818    4.0325    7.8793 H      0
   77.5855    4.8819    9.4050 H      0
   76.8871    0.3368    7.1730 H      0
   77.7172    1.8870    6.9076 H      0
  1  2  4
  1  8  4
  2  3  1
  2  4  4
  4  5  4
  5  6  1
  5  7  4
  7  8  4
  7  9  1
  9 10  1
 10 11  2
 10 14  1
 11 12  1
 12 13  1
 13 14  2
 13 16  1
 14 15  1
 16 17  1
 17 18  1
 18 19  1
 19 20  1
 19 21  4
 19 22  4
 20 23  1
 23 24  4
 23 25  4
 23 26  4
  3 27  1
  3 28  1
  3 29  1
 11 30  1
 17 31  1
 17 32  1
 16 33  1
 16 34  1
 15 35  1
 15 36  1
 15 37  1
  8 38  1
  6 39  1
  6 40  1
  9 41  1
  9 42  1
M  CHG  5  21  -1  22  -1  24  -1  25  -1  26  -1
M  END
$$$$
A:BEN701
  --CCDC--021119    3D                              

 18 18  0  0  0  0  0  0  0  0999 V2000
   79.0852   16.7416  -14.9211 C      0
   80.1653   17.3166  -15.5701 C      0
   79.9532   18.1297  -16.6721 C      0
   78.6532   18.3747  -17.1241 C      0
   77.5691   17.7997  -16.4701 C      0
   77.7932   16.9906  -15.3721 C      0
   79.2682   15.9376  -13.7911 C      0
   80.3293   15.2256  -13.5741 N      3
   78.3492   15.8776  -12.8701 N      0
   76.5544   17.9848  -16.8193 H      0
   80.3993   14.6627  -12.7323 H      0
   81.0901   15.2308  -14.2458 H      0
   78.4894   19.0161  -17.9887 H      0
   78.4876   15.2924  -12.0523 H      0
   77.4946   16.4160  -12.9700 H      0
   80.8012   18.5787  -17.1871 H      0
   81.1779   17.1304  -15.2154 H      0
   76.9471   16.5423  -14.8533 H      0
  1  2  4
  1  6  4
  1  7  1
  2  3  4
  3  4  4
  4  5  4
  5  6  4
  7  8  2
  7  9  1
  5 10  1
  8 11  1
  8 12  1
  4 13  1
  9 14  1
  9 15  1
  3 16  1
  2 17  1
  6 18  1
M  CHG  1   8   1
M  END
$$$$
B:GOL701
  --CCDC--021119    3D                              

 14 13  0  0  0  0  0  0  0  0999 V2000
  103.9792   10.6474   21.6331 C      0
  102.6892   10.3674   22.0701 O      0
  104.7132    9.3703   21.2891 C      0
  104.7542    8.5573   22.4341 O      0
  106.1213    9.7504   20.8261 C      0
  106.8803    8.6183   20.5091 O      0
  106.4346    8.1149   19.7784 H      0
  104.5190   11.1692   22.4219 H      0
  103.9280   11.2803   20.7484 H      0
  103.8281    8.3480   22.7248 H      0
  104.1906    8.8504   20.4876 H      0
  102.7311    9.7925   22.8787 H      0
  106.6201   10.2987   21.6239 H      0
  106.0446   10.3835   19.9433 H      0
  1  2  1
  1  3  1
  3  4  1
  3  5  1
  5  6  1
  6  7  1
  1  8  1
  1  9  1
  4 10  1
  3 11  1
  2 12  1
  5 13  1
  5 14  1
M  END
$$$$
B:GOL702
  --CCDC--021119    3D                              

 14 13  0  0  0  0  0  0  0  0999 V2000
   76.8381   26.3340   19.0031 C      0
   77.1801   25.7879   17.7741 O      0
   76.0361   25.3359   19.8471 C      0
   75.9441   24.0889   19.1941 O      0
   74.6200   25.8720   20.0821 C      0
   74.0330   25.2179   21.1981 O      0
   76.8559   23.7241   19.0472 H      0
   76.3546   25.5447   17.2787 H      0
   74.5842   25.3847   22.0070 H      0
   74.0133   25.6889   19.1964 H      0
   74.6669   26.9427   20.2750 H      0
   76.2360   27.2267   18.8404 H      0
   77.7477   26.6022   19.5385 H      0
   76.5312   25.2009   20.8076 H      0
  1  2  1
  1  3  1
  3  4  1
  3  5  1
  5  6  1
  4  7  1
  2  8  1
  6  9  1
  5 10  1
  5 11  1
  1 12  1
  1 13  1
  3 14  1
M  END
$$$$
B:GOL703
  --CCDC--021119    3D                              

 14 13  0  0  0  0  0  0  0  0999 V2000
  105.3063   -9.5884   34.8851 C      0
  105.3883   -8.4473   35.7211 O      0
  106.1863   -9.5574   33.6361 C      0
  107.2353  -10.4864   33.6841 O      0
  106.7813   -8.1933   33.4621 C      0
  105.6563   -7.3983   33.3201 O      0
  105.0926   -7.4740   34.1341 H      0
  104.2713   -9.6939   34.5631 H      0
  105.5931  -10.4573   35.4755 H      0
  105.5660   -9.7787   32.7689 H      0
  105.1168   -7.6413   35.2086 H      0
  107.4113   -8.1478   32.5750 H      0
  107.3628   -7.9020   34.3356 H      0
  106.8623  -11.4028   33.7684 H      0
  1  2  1
  1  3  1
  3  4  1
  3  5  1
  5  6  1
  6  7  1
  1  8  1
  1  9  1
  3 10  1
  2 11  1
  5 12  1
  5 13  1
  4 14  1
M  END
$$$$
