A:NAP1318
  --CCDC--021119    3D                              

 73 77  0  0  0  0  0  0  0  0999 V2000
   22.7881   -4.7610   26.9358 P      0
   23.7131   -3.7080   26.4438 O      5
   21.6971   -4.4210   27.8728 O      5
   23.7230   -5.9380   27.4538 O      0
   23.1231   -7.1660   27.9648 C      0
   24.2720   -8.0870   28.3428 C      0
   25.0440   -7.4600   29.4128 O      0
   23.8810   -9.4740   28.8098 C      0
   24.8550  -10.3990   28.3128 O      0
   23.9970   -9.3690   30.3338 C      0
   24.3140  -10.6060   30.9478 O      0
   25.1450   -8.3960   30.5018 C      0
   25.1300   -7.6290   31.7328 N      0
   24.0530   -6.9810   32.2788 C      0
   24.3419   -6.3360   33.4038 N      0
   25.6589   -6.5870   33.5938 C      0
   26.5229   -6.1850   34.6308 C      0
   26.1239   -5.4730   35.6838 N      0
   27.7938   -6.6240   34.5258 N      0
   28.2099   -7.3600   33.4858 C      0
   27.4669   -7.7830   32.4368 N      0
   26.1679   -7.3750   32.5578 C      0
   22.1831   -5.4780   25.6119 O      0
   20.8092   -5.5910   24.8159 P      0
   20.0052   -6.7150   25.3729 O      5
   21.1652   -5.6150   23.3649 O      5
   20.0512   -4.1890   25.0389 O      0
   19.1752   -3.9460   26.1648 C      0
   17.7302   -4.0500   25.7569 C      0
   17.4042   -3.0270   24.7849 O      0
   17.2992   -5.3400   25.0619 C      0
   17.2402   -6.4530   25.9069 O      0
   15.9813   -4.9050   24.4659 C      0
   15.0183   -4.8690   25.5179 O      0
   16.3423   -3.4880   23.9749 C      0
   16.7923   -3.4350   22.5539 N      0
   15.9763   -2.9170   21.6069 C      0
   16.3363   -2.8670   20.2849 C      0
   15.4644   -2.2240   19.2309 C      0
   15.6834   -2.4590   18.0449 O      0
   14.5164   -1.3870   19.6789 N      0
   17.5843   -3.4050   19.8839 C      0
   18.4263   -3.9030   20.8689 C      0
   18.0613   -3.8950   22.1839 C      0
   23.2520  -11.5110   31.7878 P      0
   21.8930  -11.2820   31.1938 O      5
   23.8200  -12.9010   31.5758 O      5
   23.3700  -11.0480   33.2198 O      5
   19.3642   -2.9466   26.5539 H      0
   19.3800   -4.6823   26.9407 H      0
   15.6690   -5.5532   23.6484 H      0
   26.7917   -5.2112   36.4019 H      0
   25.1521   -5.1924   35.7679 H      0
   23.0588   -6.9935   31.8346 H      0
   13.8975   -0.9228   19.0218 H      0
   14.4180   -1.2180   20.6749 H      0
   17.9966   -5.5515   24.2526 H      0
   16.5870   -6.2816   26.6349 H      0
   15.3118   -4.2238   26.2133 H      0
   17.8743   -3.4272   18.8344 H      0
   22.8723   -9.7388   28.4965 H      0
   26.0878   -8.9357   30.4259 H      0
   25.7511  -10.1579   28.6664 H      0
   23.0828   -8.9564   30.7579 H      0
   17.1077   -3.9042   26.6384 H      0
   15.0036   -2.5278   21.9039 H      0
   29.2598   -7.6490   33.4848 H      0
   18.7568   -4.2462   22.9446 H      0
   24.9208   -8.1926   27.4746 H      0
   22.5063   -7.6305   27.1969 H      0
   22.5117   -6.9496   28.8397 H      0
   19.3970   -4.3080   20.5867 H      0
   15.4818   -2.8331   24.1038 H      0
  1  2  4
  1  3  4
  1  4  1
  1 23  1
  4  5  1
  5  6  1
  6  7  1
  6  8  1
  7 12  1
  8  9  1
  8 10  1
 10 11  1
 10 12  1
 11 45  1
 12 13  1
 13 14  1
 13 22  1
 14 15  2
 15 16  1
 16 17  4
 16 22  4
 17 18  1
 17 19  4
 19 20  4
 20 21  4
 21 22  4
 23 24  1
 24 25  4
 24 26  4
 24 27  1
 27 28  1
 28 29  1
 29 30  1
 29 31  1
 30 35  1
 31 32  1
 31 33  1
 33 34  1
 33 35  1
 35 36  1
 36 37  4
 36 44  4
 37 38  4
 38 39  1
 38 42  4
 39 40  2
 39 41  1
 42 43  4
 43 44  4
 45 46  4
 45 47  4
 45 48  4
 28 49  1
 28 50  1
 33 51  1
 18 52  1
 18 53  1
 14 54  1
 41 55  1
 41 56  1
 31 57  1
 32 58  1
 34 59  1
 42 60  1
  8 61  1
 12 62  1
  9 63  1
 10 64  1
 29 65  1
 37 66  1
 20 67  1
 44 68  1
  6 69  1
  5 70  1
  5 71  1
 43 72  1
 35 73  1
M  CHG  7   2  -1   3  -1  25  -1  26  -1  46  -1  47  -1  48  -1
M  END
$$$$
A:FID1320
  --CCDC--021119    3D                              

 30 32  0  0  0  0  0  0  0  0999 V2000
   16.1993   -6.1390   19.3409 C      0
   15.3644   -5.6880   18.3289 N      0
   15.7944   -6.1500   17.1339 C      0
   17.0234   -7.0630   17.3569 C      0
   16.6154   -8.4780   17.0279 C      0
   15.8154   -9.2220   17.8779 C      0
   15.3884  -10.4590   17.4949 C      0
   14.6024  -11.1640   18.3539 F      0
   15.6904  -11.0090   16.2929 C      0
   16.4784  -10.2680   15.4369 C      0
   16.9764   -9.0200   15.7849 C      0
   17.7944   -8.3890   14.8939 O      0
   18.0504   -6.9950   15.0589 C      0
   19.2834   -6.6510   14.2259 C      0
   19.8714   -7.6700   13.5599 N      0
   19.7253   -5.4950   14.2139 O      0
   18.2363   -6.6220   16.5189 C      0
   17.2293   -6.8290   18.7869 N      0
   15.2904   -5.9460   16.0509 O      0
   16.0353   -5.9400   20.5349 O      0
   15.3254  -11.9965   16.0144 H      0
   15.5281   -8.8209   18.8487 H      0
   16.7177  -10.6755   14.4558 H      0
   17.2010   -6.4385   14.6654 H      0
   18.0445   -7.1447   19.3027 H      0
   14.5501   -5.0977   18.4659 H      0
   19.1308   -7.1119   16.9010 H      0
   18.3515   -5.5421   16.5992 H      0
   20.6941   -7.4969   12.9913 H      0
   19.4901   -8.6081   13.6286 H      0
  1  2  1
  1 18  1
  1 20  2
  2  3  1
  3  4  1
  3 19  2
  4  5  1
  4 17  1
  4 18  1
  5  6  4
  5 11  4
  6  7  4
  7  8  1
  7  9  4
  9 10  4
 10 11  4
 11 12  1
 12 13  1
 13 14  1
 13 17  1
 14 15  1
 14 16  2
  9 21  1
  6 22  1
 10 23  1
 13 24  1
 18 25  1
  2 26  1
 17 27  1
 17 28  1
 15 29  1
 15 30  1
M  END
$$$$
A:CL1321
  --CCDC--021119    3D                              

  2  1  0  0  0  0  0  0  0  0999 V2000
    8.3875   -6.8360   17.9769 Cl     0
    9.6615   -6.8360   17.9769 H      0
  1  2  1
M  END
$$$$
