A:CBN1
  --CCDC--021119    3D                              

 84 88  0  0  0  0  0  0  0  0999 V2000
   18.8023   24.1054   36.3504 C      0
   18.8673   28.0615   34.4973 C      0
   19.7803   26.2635   33.1953 C      0
   20.0833   26.0855   35.7514 C      0
   20.5534   26.8645   37.0024 C      0
   21.9804   27.3985   36.7814 C      0
   21.9394   28.2695   35.4904 C      0
   20.0063   27.0285   34.4963 C      0
   19.2403   31.4046   36.9214 Cl     0
   21.0804   30.5276   34.9944 C      0
   20.1183   31.5216   35.4194 C      0
   19.8993   32.6696   34.5823 C      0
   18.9713   34.9876   34.3363 C      0
   19.6543   35.1366   33.0193 C      0
   20.4454   34.1126   32.5503 C      0
   20.6274   32.8396   33.3193 C      0
   21.5744   31.8196   32.8913 C      0
   21.8074   30.6766   33.7123 C      0
   18.0843   36.6767   31.8532 C      0
   17.0003   35.7427   31.4982 C      0
   17.2923   34.5076   30.7572 C      0
   16.2123   33.7016   30.2532 C      0
   14.8453   34.1456   30.4902 C      0
   14.5443   35.3517   31.2462 C      0
   15.6203   36.1407   31.7672 C      0
   16.5013   32.4126   29.5181 C      0
   16.2963   31.1306   30.3762 C      0
   17.1963   30.2796   30.8992 C      0
   16.7213   29.1565   31.7172 C      0
   18.6213   30.5366   30.7392 C      0
   19.3183   36.2947   32.1852 N      0
   18.8303   25.5045   36.0894 O      0
   20.5184   26.0195   38.1555 O      0
   21.2624   27.6865   34.3753 O      0
   21.2764   29.4615   35.8684 O      0
   21.1154   34.2206   31.3722 O      0
   19.0613   33.7426   35.0224 O      0
   18.1923   35.7977   34.7383 O      0
   17.8873   37.8247   31.7582 O      0
   13.7972   33.3806   30.0452 O      0
   19.5133   23.7424   41.5606 C      0
   19.5563   24.2694   40.3466 C      0
   20.0403   25.6335   40.4546 C      0
   20.3104   25.9405   41.8576 N      0
   19.8903   24.7255   42.5626 C      0
   19.6813   24.8605   44.0077 C      0
   20.3784   26.5735   39.4085 C      0
   20.5244   27.7625   39.6135 O      0
   22.8534   26.2655   36.7114 O      0
   20.7959   25.2877   35.5471 H      0
   18.3244   34.2030   30.5898 H      0
   22.9595   28.5117   35.1960 H      0
   19.2759   23.7647   39.4232 H      0
   22.2666   28.0218   37.6273 H      0
   19.8834   27.7077   37.1639 H      0
   21.7413   34.9903   31.4167 H      0
   19.2336   22.7128   41.7786 H      0
   13.8387   32.4836   30.4691 H      0
   22.5187   29.9146   33.3971 H      0
   15.2569   30.8830   30.5868 H      0
   17.5365   32.4362   29.1809 H      0
   15.8396   32.3556   28.6551 H      0
   15.4114   37.0304   32.3594 H      0
   13.5110   35.6516   31.4144 H      0
   20.0820   25.7234   44.5376 H      0
   19.1254   24.0978   44.5511 H      0
   20.0890   36.8521   31.8310 H      0
   22.5788   25.6822   35.9561 H      0
   18.8706   31.4945   31.1932 H      0
   19.1898   29.7453   31.2258 H      0
   18.8688   30.5620   29.6790 H      0
   16.0632   28.5261   31.1211 H      0
   17.5732   28.5708   32.0593 H      0
   16.1752   29.5398   32.5779 H      0
   22.1038   31.9292   31.9460 H      0
   19.4593   23.8794   37.1890 H      0
   17.7853   23.8019   36.5940 H      0
   19.1410   23.5647   35.4679 H      0
   17.9088   27.5450   34.4781 H      0
   18.9324   28.6727   35.3963 H      0
   18.9542   28.6984   33.6183 H      0
   19.8410   26.9523   32.3540 H      0
   20.5432   25.4935   33.0897 H      0
   18.7956   25.7988   33.2138 H      0
  1 32  1
  2  8  1
  3  8  1
  4  5  1
  4  8  1
  4 32  1
  5  6  1
  5 33  1
  6  7  1
  6 49  1
  7 34  1
  7 35  1
  8 34  1
  9 11  1
 10 11  4
 10 18  4
 10 35  1
 11 12  4
 12 16  4
 12 37  1
 13 14  1
 13 37  1
 13 38  2
 14 15  2
 14 31  1
 15 16  1
 15 36  1
 16 17  4
 17 18  4
 19 20  1
 19 31  1
 19 39  2
 20 21  4
 20 25  4
 21 22  4
 22 23  4
 22 26  1
 23 24  4
 23 40  1
 24 25  4
 26 27  1
 27 28  2
 28 29  1
 28 30  1
 33 47  1
 41 42  2
 41 45  1
 42 43  1
 43 44  2
 43 47  1
 44 45  1
 45 46  2
 47 48  2
  4 50  1
 21 51  1
  7 52  1
 42 53  1
  6 54  1
  5 55  1
 36 56  1
 41 57  1
 40 58  1
 18 59  1
 27 60  1
 26 61  1
 26 62  1
 25 63  1
 24 64  1
 46 65  1
 46 66  1
 31 67  1
 49 68  1
 30 69  1
 30 70  1
 30 71  1
 29 72  1
 29 73  1
 29 74  1
 17 75  1
  1 76  1
  1 77  1
  1 78  1
  2 79  1
  2 80  1
  2 81  1
  3 82  1
  3 83  1
  3 84  1
M  END
$$$$
