A:AS4201
  --CCDC--021119    3D                              

 54 58  0  0  0  0  0  0  0  0999 V2000
   19.8697   73.9888   20.2972 C      0
   17.4548   73.7728   20.9302 C      0
   18.9887   72.9307   22.5792 C      0
   18.6697   70.4276   19.0572 C      0
   19.7267   70.1526   17.9402 C      0
   19.4647   69.3585   16.8631 C      0
   18.0967   68.6705   16.6741 C      0
   19.0187   69.4645   20.2522 C      0
   20.7127   75.7109   21.8682 C      0
   19.1657   75.5828   21.9052 C      0
   18.4747   76.1399   23.2042 C      0
   16.9638   76.3769   23.1632 C      0
   21.1677   74.6978   20.7902 C      0
   18.8687   74.0988   21.5272 C      0
   20.0497   72.5037   19.8512 C      0
   18.6257   71.9637   19.5142 C      0
   17.6307   72.2467   20.7482 C      0
   18.1947   71.8147   22.0142 O      0
   18.3887   73.2247   23.8402 O      0
   17.7727   68.1055   15.6361 O      0
   17.1158   68.6875   17.8752 C      0
   17.2538   70.1046   18.4592 C      0
   21.1137   70.8036   18.1622 C      0
   20.9907   72.2927   18.6042 C      0
   19.1347   76.3659   24.1892 O      0
   16.4708   76.4569   24.5032 O      0
   20.0253   69.6783   20.6086 H      0
   18.3067   69.6179   21.0618 H      0
   18.9656   68.4311   19.9129 H      0
   18.7916   76.1868   21.0798 H      0
   21.1417   75.4588   22.8369 H      0
   21.0074   76.7224   21.5927 H      0
   20.2422   69.2058   16.1160 H      0
   21.6775   70.7577   17.2316 H      0
   21.6435   70.2492   18.9353 H      0
   21.6537   75.2156   19.9646 H      0
   21.8567   73.9717   21.2192 H      0
   17.0483   70.8211   17.6653 H      0
   16.5156   70.2192   19.2516 H      0
   20.4489   71.9342   20.6892 H      0
   19.4592   74.5554   19.4627 H      0
   17.3963   67.9372   18.6130 H      0
   16.0951   68.5053   17.5421 H      0
   16.9157   77.2087   24.9753 H      0
   16.4783   75.5520   22.6438 H      0
   16.7540   77.3088   22.6403 H      0
   21.9843   72.6605   18.8561 H      0
   20.5915   72.8678   17.7700 H      0
   17.4210   73.4065   23.7120 H      0
   16.6668   71.7695   20.5777 H      0
   18.2570   72.5396   18.6667 H      0
   20.0289   72.6353   22.7083 H      0
   17.2816   74.2819   19.9832 H      0
   16.6507   74.0134   21.6241 H      0
  1 13  1
  1 14  1
  1 15  1
  2 14  1
  2 17  1
  3 14  1
  3 18  1
  3 19  1
  4  5  1
  4  8  1
  4 16  1
  4 22  1
  5  6  2
  5 23  1
  6  7  1
  7 20  2
  7 21  1
  9 10  1
  9 13  1
 10 11  1
 10 14  1
 11 12  1
 11 25  2
 12 26  1
 15 16  1
 15 24  1
 16 17  1
 17 18  1
 21 22  1
 23 24  1
  8 27  1
  8 28  1
  8 29  1
 10 30  1
  9 31  1
  9 32  1
  6 33  1
 23 34  1
 23 35  1
 13 36  1
 13 37  1
 22 38  1
 22 39  1
 15 40  1
  1 41  1
 21 42  1
 21 43  1
 26 44  1
 12 45  1
 12 46  1
 24 47  1
 24 48  1
 19 49  1
 17 50  1
 16 51  1
  3 52  1
  2 53  1
  2 54  1
M  END
$$$$
A:SO4202
  --CCDC--021119    3D                              

  5  4  0  0  0  0  0  0  0  0999 V2000
   18.7167   59.4910    7.5771 S      0
   17.5487   60.1141    8.2201 O      5
   19.0787   58.2750    8.3291 O      5
   19.8087   60.4531    7.6131 O      5
   18.3837   59.1570    6.1891 O      5
  1  2  4
  1  3  4
  1  4  4
  1  5  4
M  CHG  4   2  -1   3  -1   4  -1   5  -1
M  END
$$$$
A:GOL203
  --CCDC--021119    3D                              

 11 10  0  0  0  0  0  0  0  0999 V2000
   15.0448   53.2457   17.1002 C      0
   15.6778   54.5248   17.8132 O      0
   15.6438   52.0016   16.8811 C      0
   14.7778   51.1656   16.2941 O      0
   16.7718   51.9666   17.3032 C      0
   18.1647   51.3866   17.6432 O      0
   16.2999   52.9372   17.4492 H      0
   14.4905   51.5449   15.4226 H      0
   16.4867   54.8146   17.3156 H      0
   14.7611   53.5943   16.1082 H      0
   14.1483   53.0231   17.6769 H      0
  1  2  1
  1  3  1
  3  4  1
  3  5  4
  5  6  4
  5  7  1
  4  8  1
  2  9  1
  1 10  1
  1 11  1
M  END
$$$$
A:GOL204
  --CCDC--021119    3D                              

 10  9  0  0  0  0  0  0  0  0999 V2000
   17.8687   61.8401   15.4421 C      0
   18.4467   62.8932   16.4861 O      0
   18.4227   60.6211   15.0401 C      0
   17.6367   60.0511   14.1431 O      0
   19.4697   60.4311   15.6041 C      0
   20.7947   59.7650   16.0611 O      0
   17.7532   62.4057   14.5187 H      0
   16.8865   61.5785   15.8329 H      0
   19.3338   63.2141   16.1760 H      0
   17.5464   60.6483   13.3550 H      0
  1  2  1
  1  3  1
  3  4  1
  3  5  2
  5  6  2
  1  7  1
  1  8  1
  2  9  1
  4 10  1
M  END
$$$$
A:BOG985
  --CCDC--021119    3D                              

 44 44  0  0  0  0  0  0  0  0999 V2000
   24.0247   83.7303   25.1622 C      0
   23.5007   84.1263   23.9972 O      0
   25.2796   82.9272   25.0332 C      0
   25.0196   81.7372   24.2352 O      0
   25.7586   82.4182   26.4422 C      0
   27.1876   82.2102   26.1332 O      0
   25.5766   83.5042   27.5822 C      0
   26.8036   83.7623   28.3713 O      0
   24.7106   84.8323   27.2272 C      0
   24.2077   84.9673   25.8772 O      0
   24.7666   86.2374   27.8902 C      0
   25.3556   86.1414   29.1853 O      0
   22.1257   84.1243   24.3702 C      0
   21.2787   84.6023   23.2442 C      0
   19.9097   84.4743   23.8202 C      0
   18.8307   84.8733   22.8612 C      0
   17.5957   84.5613   23.6862 C      0
   16.3228   84.8303   22.9292 C      0
   15.1968   84.4193   23.8722 C      0
   13.8388   84.6353   23.2132 C      0
   19.7144   84.1266   24.8336 H      0
   21.5797   84.9534   22.2583 H      0
   18.8647   84.2800   21.9487 H      0
   18.8886   85.9311   22.6088 H      0
   17.6077   85.1792   24.5828 H      0
   17.6197   83.5101   23.9695 H      0
   16.2902   84.2382   22.0158 H      0
   16.2440   85.8874   22.6795 H      0
   15.2535   85.0184   24.7798 H      0
   15.3083   83.3659   24.1251 H      0
   13.7759   84.0357   22.3064 H      0
   13.0496   84.3364   23.9015 H      0
   13.7210   85.6882   22.9611 H      0
   26.0604   83.5264   24.5671 H      0
   24.7062   82.0061   23.3322 H      0
   25.2724   81.4810   26.7092 H      0
   27.5928   83.0701   25.8462 H      0
   24.4089   87.1588   27.4332 H      0
   24.9381   82.9901   28.2991 H      0
   27.5223   84.0882   27.7685 H      0
   26.2775   85.7813   29.1038 H      0
   23.2833   83.1318   25.6897 H      0
   21.9861   84.7813   25.2274 H      0
   21.8284   83.1112   24.6371 H      0
  1  2  1
  1  3  1
  1 10  1
  2 13  1
  3  4  1
  3  5  1
  5  6  1
  5  7  1
  7  8  1
  7  9  1
  9 10  1
  9 11  2
 11 12  1
 13 14  1
 14 15  2
 15 16  1
 16 17  1
 17 18  1
 18 19  1
 19 20  1
 15 21  1
 14 22  1
 16 23  1
 16 24  1
 17 25  1
 17 26  1
 18 27  1
 18 28  1
 19 29  1
 19 30  1
 20 31  1
 20 32  1
 20 33  1
  3 34  1
  4 35  1
  5 36  1
  6 37  1
 11 38  1
  7 39  1
  8 40  1
 12 41  1
  1 42  1
 13 43  1
 13 44  1
M  END
$$$$
