A:FID1320
  --CCDC--012419    3D                              

 30 32  0  0  0  0  0  0  0  0999 V2000
   16.1993   -6.1390   19.3409 C      0
   15.3644   -5.6880   18.3289 N      0
   15.7944   -6.1500   17.1339 C      0
   17.0234   -7.0630   17.3569 C      0
   16.6154   -8.4780   17.0279 C      0
   15.8154   -9.2220   17.8779 C      0
   15.3884  -10.4590   17.4949 C      0
   14.6024  -11.1640   18.3539 F      0
   15.6904  -11.0090   16.2929 C      0
   16.4784  -10.2680   15.4369 C      0
   16.9764   -9.0200   15.7849 C      0
   17.7944   -8.3890   14.8939 O      0
   18.0504   -6.9950   15.0589 C      0
   19.2834   -6.6510   14.2259 C      0
   19.8714   -7.6700   13.5599 N      0
   19.7253   -5.4950   14.2139 O      0
   18.2363   -6.6220   16.5189 C      0
   17.2293   -6.8290   18.7869 N      0
   15.2904   -5.9460   16.0509 O      0
   16.0353   -5.9400   20.5349 O      0
   17.2010   -6.4385   14.6654 H      0
   14.5501   -5.0977   18.4659 H      0
   15.5281   -8.8209   18.8487 H      0
   18.0445   -7.1447   19.3027 H      0
   19.1308   -7.1119   16.9010 H      0
   18.3515   -5.5421   16.5992 H      0
   16.7177  -10.6755   14.4558 H      0
   15.3254  -11.9965   16.0144 H      0
   20.6941   -7.4969   12.9913 H      0
   19.4901   -8.6081   13.6286 H      0
  1  2  1
  1 18  1
  1 20  2
  2  3  1
  3  4  1
  3 19  2
  4  5  1
  4 17  1
  4 18  1
  5  6  4
  5 11  4
  6  7  4
  7  8  1
  7  9  4
  9 10  4
 10 11  4
 11 12  1
 12 13  1
 13 14  1
 13 17  1
 14 15  1
 14 16  2
 13 21  1
  2 22  1
  6 23  1
 18 24  1
 17 25  1
 17 26  1
 10 27  1
  9 28  1
 15 29  1
 15 30  1
M  END
$$$$
