A:NDP163
  --CCDC--021119    3D                              

 73 77  0  0  0  0  0  0  0  0999 V2000
   35.8654   -6.5930  -22.0044 P      0
   36.8335   -7.7159  -21.7365 O      5
   36.3435   -5.2250  -22.3814 O      5
   34.7424   -7.0069  -23.1194 O      0
   34.1044   -8.2969  -23.0064 C      0
   33.3184   -8.4779  -24.2994 C      0
   34.2655   -8.8939  -25.2934 O      0
   32.3863   -9.7119  -24.2154 C      0
   31.1552   -9.3529  -23.5964 O      0
   32.2633  -10.1659  -25.6604 C      0
   31.5613   -9.2019  -26.4523 O      0
   33.7085   -9.9869  -26.0803 C      0
   34.5325  -11.2039  -25.9193 N      0
   35.1625  -11.5799  -24.7954 C      0
   35.9086  -12.6839  -25.0064 N      0
   35.7616  -13.0109  -26.3203 C      0
   36.2867  -14.0299  -27.2403 C      0
   37.1257  -15.0349  -26.8273 N      0
   35.8527  -13.9319  -28.5433 N      0
   35.0557  -12.9849  -29.0263 C      0
   34.5526  -12.0379  -28.2383 N      0
   34.8816  -12.0159  -26.9043 C      0
   34.8283   -6.4330  -20.7725 O      0
   34.9112   -6.3870  -19.1665 P      0
   35.4933   -7.6639  -18.6835 O      5
   33.5801   -5.9580  -18.6645 O      5
   36.0243   -5.2940  -18.8865 O      0
   35.6853   -3.9240  -19.0475 C      0
   36.0493   -3.1580  -17.7806 C      0
   37.5174   -3.0780  -17.6496 O      0
   35.5572   -1.7030  -17.7616 C      0
   35.1891   -1.3580  -16.4126 O      0
   36.7943   -0.8860  -18.1375 C      0
   36.7763    0.4780  -17.6476 O      0
   37.8624   -1.6930  -17.4516 C      0
   39.2065   -1.5590  -18.0035 N      0
   40.1875   -1.2120  -17.1686 C      0
   41.4846   -1.1860  -17.6156 C      0
   42.5547   -0.7760  -16.6526 C      0
   43.7108   -0.8930  -17.0026 O      0
   42.2776   -0.4060  -15.3986 N      0
   41.9177   -1.4990  -19.0395 C      0
   40.7517   -1.9240  -19.7945 C      0
   39.4756   -1.8930  -19.2855 C      0
   30.2553   -9.6329  -27.3153 P      0
   30.0773   -8.4809  -28.2043 O      5
   30.6323  -10.9489  -27.9053 O      5
   29.1782   -9.8729  -26.2933 O      5
   34.8095  -12.9837  -30.0871 H      0
   43.0284   -0.1339  -14.7721 H      0
   41.3164   -0.3971  -15.0727 H      0
   42.9319   -1.4181  -19.4280 H      0
   35.6426   -3.6830  -16.9175 H      0
   40.8956   -2.2842  -20.8121 H      0
   38.6458   -2.1484  -19.9429 H      0
   36.9436   -0.8991  -19.2162 H      0
   32.7840   -7.5744  -24.5891 H      0
   34.7371   -1.5426  -18.4598 H      0
   35.9792   -1.4548  -15.8189 H      0
   33.4344   -8.3162  -22.1481 H      0
   34.8509   -9.0828  -22.9019 H      0
   36.7206    0.4728  -16.6561 H      0
   37.8744   -1.4628  -16.3872 H      0
   31.8935  -11.1839  -25.7734 H      0
   39.9598   -0.9504  -16.1363 H      0
   30.7104   -8.6440  -24.1308 H      0
   32.8711  -10.4925  -23.6309 H      0
   35.0821  -11.0627  -23.8404 H      0
   34.6157   -3.8339  -19.2315 H      0
   36.2349   -3.5108  -19.8920 H      0
   33.7268   -9.6973  -27.1300 H      0
   37.4658  -15.7189  -27.4957 H      0
   37.4060  -15.0940  -25.8536 H      0
  1  2  4
  1  3  4
  1  4  1
  1 23  1
  4  5  1
  5  6  1
  6  7  1
  6  8  1
  7 12  1
  8  9  1
  8 10  1
 10 11  1
 10 12  1
 11 45  1
 12 13  1
 13 14  1
 13 22  1
 14 15  2
 15 16  1
 16 17  4
 16 22  4
 17 18  1
 17 19  4
 19 20  4
 20 21  4
 21 22  4
 23 24  1
 24 25  4
 24 26  4
 24 27  1
 27 28  1
 28 29  1
 29 30  1
 29 31  1
 30 35  1
 31 32  1
 31 33  1
 33 34  1
 33 35  1
 35 36  1
 36 37  4
 36 44  4
 37 38  4
 38 39  1
 38 42  4
 39 40  2
 39 41  1
 42 43  4
 43 44  4
 45 46  4
 45 47  4
 45 48  4
 20 49  1
 41 50  1
 41 51  1
 42 52  1
 29 53  1
 43 54  1
 44 55  1
 33 56  1
  6 57  1
 31 58  1
 32 59  1
  5 60  1
  5 61  1
 34 62  1
 35 63  1
 10 64  1
 37 65  1
  9 66  1
  8 67  1
 14 68  1
 28 69  1
 28 70  1
 12 71  1
 18 72  1
 18 73  1
M  CHG  7   2  -1   3  -1  25  -1  26  -1  46  -1  47  -1  48  -1
M  END
$$$$
A:MTX164
  --CCDC--021119    3D                              

 53 55  0  0  0  0  0  0  0  0999 V2000
   46.1320    2.1970  -18.4125 N      0
   46.9310    1.1100  -18.4625 C      0
   48.0891    1.1640  -17.7776 N      0
   46.5771    0.0110  -19.1925 N      0
   45.4090   -0.0170  -19.9035 C      0
   45.0980   -1.1100  -20.5575 N      0
   44.6139    1.0860  -19.8885 C      0
   43.4599    1.0890  -20.6375 N      0
   42.6558    2.2000  -20.6055 C      0
   42.9768    3.3450  -19.8785 C      0
   44.1689    3.3480  -19.1405 N      0
   44.9629    2.2060  -19.1555 C      0
   41.3718    2.1400  -21.4245 C      0
   40.7178    3.4400  -21.5735 N      0
   39.3966    3.5950  -20.9175 C      0
   42.4040    6.5420  -23.8584 C      0
   41.1949    6.7370  -23.2034 C      0
   40.6268    5.7200  -22.4634 C      0
   41.2918    4.4990  -22.3474 C      0
   42.5149    4.3420  -22.9954 C      0
   43.0470    5.3040  -23.8104 C      0
   43.0850    7.6029  -24.6104 C      0
   42.3800    8.6529  -25.1774 O      0
   44.4121    7.5149  -24.6654 N      0
   45.2442    8.3639  -25.4694 C      0
   46.1713    7.5059  -26.3013 C      0
   46.5303    6.3740  -25.8573 O      0
   46.5944    7.9459  -27.3993 O      0
   46.1253    9.2859  -24.6164 C      0
   45.2832   10.2369  -23.7674 C      0
   44.5041   11.2829  -24.5714 C      0
   43.7931   12.1549  -23.9914 O      0
   44.5432   11.3079  -25.8193 O      0
   42.3198    4.2134  -19.8836 H      0
   48.7214    0.3701  -17.7863 H      0
   48.3297    1.9986  -17.2525 H      0
   44.6195    8.9662  -26.1273 H      0
   44.8646    6.8016  -24.1026 H      0
   43.9412    5.1104  -24.4011 H      0
   43.0699    3.4167  -22.8475 H      0
   39.6659    5.8695  -21.9733 H      0
   40.6912    7.6999  -23.2743 H      0
   46.7655    9.8717  -25.2743 H      0
   46.7423    8.6761  -23.9581 H      0
   45.9479   10.7603  -23.0817 H      0
   44.5689    9.6435  -23.1985 H      0
   44.2362   -1.1538  -21.0919 H      0
   45.7190   -1.9123  -20.5293 H      0
   39.5029    3.4365  -19.8453 H      0
   39.0162    4.5989  -21.1001 H      0
   38.7008    2.8633  -21.3253 H      0
   40.6792    1.4594  -20.9315 H      0
   41.6119    1.7585  -22.4158 H      0
  1  2  4
  1 12  4
  2  3  1
  2  4  4
  4  5  4
  5  6  1
  5  7  4
  7  8  4
  7 12  4
  8  9  4
  9 10  4
  9 13  1
 10 11  4
 11 12  4
 13 14  1
 14 15  1
 14 19  1
 16 17  4
 16 21  4
 16 22  1
 17 18  4
 18 19  4
 19 20  4
 20 21  4
 22 23  2
 22 24  1
 24 25  1
 25 26  1
 25 29  1
 26 27  4
 26 28  4
 29 30  1
 30 31  1
 31 32  4
 31 33  4
 10 34  1
  3 35  1
  3 36  1
 25 37  1
 24 38  1
 21 39  1
 20 40  1
 18 41  1
 17 42  1
 29 43  1
 29 44  1
 30 45  1
 30 46  1
  6 47  1
  6 48  1
 15 49  1
 15 50  1
 15 51  1
 13 52  1
 13 53  1
M  END
$$$$
