N:LUZ1
  --CCDC--012419    3D                              

 16 17  0  0  0  0  0  0  0  0999 V2000
  -40.4776   -7.6549   20.1296 N      0
  -40.8997   -7.6949   18.8456 C      0
  -40.9925   -8.4699   21.0496 C      0
  -40.3518   -6.8469   18.0636 O      0
  -41.8628   -8.6119   18.4396 N      0
  -42.4277   -9.4529   19.3886 C      0
  -43.3457  -10.3349   19.2326 O      0
  -41.9765   -9.3919   20.7006 C      0
  -42.5324  -10.2519   21.5957 N      0
  -42.1403  -10.1309   22.8737 C      0
  -41.1683   -9.1989   23.2427 C      0
  -40.5964   -8.3859   22.3437 N      0
  -39.7563   -6.9929   20.3972 H      0
  -42.1476   -8.6655   17.4668 H      0
  -42.5871  -10.7694   23.6344 H      0
  -40.8673   -9.1309   24.2871 H      0
  1  2  1
  1  3  1
  2  4  2
  2  5  1
  3  8  4
  3 12  4
  5  6  1
  6  7  2
  6  8  1
  8  9  4
  9 10  4
 10 11  4
 11 12  4
  1 13  1
  5 14  1
 10 15  1
 11 16  1
M  END
$$$$
