A:PA5558
  --CCDC--021119    3D                              

 23 22  0  0  0  0  0  0  0  0999 V2000
   13.8519    9.7463   28.4492 O      0
   14.8529   10.4273   28.9882 C      0
   15.2549   11.4554   28.4572 O      0
   15.2619    9.6403   30.2762 C      0
   14.5509    8.4273   30.6072 O      0
   16.7349    9.2393   29.9422 C      0
   16.7519    8.3063   28.8832 O      0
   17.3869    8.4813   31.1493 C      0
   17.3889    9.4263   32.2273 O      0
   18.8389    8.1103   30.7412 C      0
   19.4829    9.4263   30.4322 O      0
   21.0059    9.1203   29.9422 P      0
   21.7689    8.3253   31.0243 O      5
   20.9979    8.2323   28.7082 O      5
   21.6259   10.4933   29.6362 O      5
   16.3327    8.7107   28.0790 H      0
   15.2528   10.3131   31.1325 H      0
   14.6548    7.7709   29.8694 H      0
   17.3207   10.1202   29.6838 H      0
   16.8139    7.5924   31.4089 H      0
   16.4560    9.7006   32.4288 H      0
   18.8403    7.4645   29.8644 H      0
   19.3544    7.6112   31.5604 H      0
  1  2  4
  2  3  4
  2  4  1
  4  5  1
  4  6  1
  6  7  1
  6  8  1
  8  9  1
  8 10  1
 10 11  1
 11 12  1
 12 13  4
 12 14  4
 12 15  4
  7 16  1
  4 17  1
  5 18  1
  6 19  1
  8 20  1
  9 21  1
 10 22  1
 10 23  1
M  CHG  3  13  -1  14  -1  15  -1
M  END
$$$$
B:PA5558
  --CCDC--021119    3D                              

 23 22  0  0  0  0  0  0  0  0999 V2000
  -10.2179  -13.6815   39.3996 O      0
  -10.9189  -14.6845   38.8706 C      0
  -11.9369  -15.0825   39.4246 O      0
  -10.1739  -15.1005   37.5645 C      0
   -8.9570  -14.4055   37.2045 O      0
   -9.8119  -16.5946   37.8585 C      0
   -8.8470  -16.6596   38.8896 O      0
   -9.1190  -17.2476   36.6155 C      0
  -10.1109  -17.2006   35.5674 O      0
   -8.7840  -18.7156   36.9985 C      0
  -10.1099  -19.3216   37.3365 O      0
   -9.8399  -20.8527   37.8265 P      0
   -9.0860  -21.6247   36.7385 O      5
   -8.9460  -20.8607   39.0616 O      5
  -11.2279  -21.4257   38.1555 O      5
   -8.1152  -18.7472   37.8574 H      0
   -8.3237  -19.2374   36.1607 H      0
   -8.2212  -16.7000   36.3325 H      0
  -10.7036  -17.1550   38.1356 H      0
   -8.2837  -14.5220   37.9251 H      0
   -9.2135  -16.2425   39.7128 H      0
  -10.3631  -16.2562   35.3925 H      0
  -10.8697  -15.0595   36.7278 H      0
  1  2  4
  2  3  4
  2  4  1
  4  5  1
  4  6  1
  6  7  1
  6  8  1
  8  9  1
  8 10  1
 10 11  1
 11 12  1
 12 13  4
 12 14  4
 12 15  4
 10 16  1
 10 17  1
  8 18  1
  6 19  1
  5 20  1
  7 21  1
  9 22  1
  4 23  1
M  CHG  3  13  -1  14  -1  15  -1
M  END
$$$$
