A:XDL1306
  --CCDC--021119    3D                              

 35 36  0  0  0  0  0  0  0  0999 V2000
    8.9318   26.1221    0.7310 N      0
    9.7998   26.5101    1.6679 C      0
    9.9948   25.6131    2.9199 C      0
   10.1258   26.4271    4.0788 O      0
    8.9088   24.5351    3.0798 C      0
    8.7138   23.8691    1.7269 C      0
    8.2118   24.8611    0.6940 C      0
   10.5018   27.6291    1.5719 O      0
    9.3918   23.6071    4.0488 O      0
    8.4628   22.8321    4.7318 C      0
    9.1128   21.4851    4.9068 C      0
    8.2568   20.5851    5.7877 C      0
    7.8238   21.2991    7.0627 C      0
    7.2708   22.6821    6.7107 C      0
    9.3508   20.8031    3.6658 O      0
    8.8988   19.3351    6.1277 O      0
    6.8418   20.5431    7.7496 O      0
    8.2228   23.4271    5.9367 O      0
    9.3060   26.9759    4.1922 H      0
    8.7580   26.7713   -0.0296 H      0
    7.2159   19.6551    7.9898 H      0
    8.3285   24.4223   -0.2959 H      0
    7.1572   25.0565    0.8824 H      0
    7.5417   22.7422    4.1578 H      0
    7.9764   24.9845    3.4182 H      0
   10.9419   25.0914    2.7909 H      0
    9.9504   21.3524    3.0959 H      0
    7.0541   23.2249    7.6295 H      0
    6.3547   22.5645    6.1337 H      0
    7.9874   23.0641    1.8287 H      0
    9.6656   23.4590    1.3924 H      0
    8.6911   21.4208    7.7100 H      0
    7.3545   20.3450    5.2273 H      0
    9.7417   19.5189    6.6194 H      0
   10.0713   21.6326    5.4022 H      0
  1  2  1
  1  7  1
  2  3  1
  2  8  2
  3  4  1
  3  5  1
  5  6  1
  5  9  1
  6  7  1
  9 10  1
 10 11  1
 10 18  1
 11 12  1
 11 15  1
 12 13  1
 12 16  1
 13 14  1
 13 17  1
 14 18  1
  4 19  1
  1 20  1
 17 21  1
  7 22  1
  7 23  1
 10 24  1
  5 25  1
  3 26  1
 15 27  1
 14 28  1
 14 29  1
  6 30  1
  6 31  1
 13 32  1
 12 33  1
 16 34  1
 11 35  1
M  END
$$$$
A:IMD1308
  --CCDC--021119    3D                              

  9  9  0  0  0  0  0  0  0  0999 V2000
   33.1403   12.4020   15.8132 N      0
   32.7993   11.4420   14.9593 C      0
   32.4853   10.3750   15.6772 N      0
   32.6243   10.6680   16.9742 C      0
   33.0473   11.9720   17.0652 C      0
   32.7816   11.5189   13.8731 H      0
   33.2611   12.5341   17.9731 H      0
   32.4360    9.9941   17.8086 H      0
   33.4319   13.3363   15.5444 H      0
  1  2  1
  1  5  1
  2  3  2
  3  4  1
  4  5  2
  2  6  1
  5  7  1
  4  8  1
  1  9  1
M  END
$$$$
A:IMD1309
  --CCDC--021119    3D                              

  9  9  0  0  0  0  0  0  0  0999 V2000
    8.0128   19.9861   10.0325 N      0
    9.2378   19.4131    9.9105 C      0
    9.8148   19.3701   11.1245 N      0
    8.9218   19.9351   11.9914 C      0
    7.8248   20.3061   11.3244 C      0
    9.0800   20.0632   13.0612 H      0
    6.9414   20.7803   11.7493 H      0
    9.6794   19.0490    8.9840 H      0
    7.3528   20.1453    9.2781 H      0
  1  2  1
  1  5  1
  2  3  2
  3  4  1
  4  5  2
  4  6  1
  5  7  1
  2  8  1
  1  9  1
M  END
$$$$
A:XDL1310
  --CCDC--021119    3D                              

 35 36  0  0  0  0  0  0  0  0999 V2000
   10.0278   17.4550   14.4603 N      0
   10.4818   16.8990   15.5652 C      0
    9.8288   15.6100   16.0482 C      0
    9.6138   15.6520   17.4281 O      0
    8.5108   15.3580   15.3382 C      0
    8.7448   15.4480   13.8533 C      0
    9.0398   16.8970   13.5203 C      0
   11.4227   17.3680   16.2212 O      0
    8.0508   14.0670   15.7622 O      0
    6.6839   13.8660   15.5322 C      0
    6.3709   12.4350   15.8282 C      0
    4.8699   12.1550   15.7552 C      0
    4.1119   13.2050   16.5452 C      0
    4.5689   14.5900   16.1862 C      0
    7.0628   11.6240   14.8913 O      0
    4.6069   10.8620   16.2582 O      0
    2.7199   13.1000   16.2802 O      0
    5.9759   14.7020   16.4062 O      0
    4.2832   13.0403   17.6079 H      0
    4.5530   12.1998   14.7143 H      0
    9.0176   16.4153   17.6472 H      0
    6.7254   12.1968   16.8300 H      0
    6.4353   14.1018   14.4985 H      0
    7.7881   16.1158   15.6372 H      0
    9.4353   16.9580   12.5075 H      0
    8.1184   17.4739   13.5855 H      0
   10.4006   18.3708   14.2308 H      0
    4.0460   15.3165   16.8066 H      0
    4.3495   14.7837   15.1373 H      0
    8.0396   11.7829   14.9737 H      0
    4.9083   10.8067   17.2027 H      0
    2.3999   12.1979   16.5442 H      0
    7.8564   15.1177   13.3171 H      0
    9.5914   14.8232   13.5727 H      0
   10.5008   14.7814   15.8300 H      0
  1  2  1
  1  7  1
  2  3  1
  2  8  2
  3  4  1
  3  5  1
  5  6  1
  5  9  1
  6  7  1
  9 10  1
 10 11  1
 10 18  1
 11 12  1
 11 15  1
 12 13  1
 12 16  1
 13 14  1
 13 17  1
 14 18  1
 13 19  1
 12 20  1
  4 21  1
 11 22  1
 10 23  1
  5 24  1
  7 25  1
  7 26  1
  1 27  1
 14 28  1
 14 29  1
 15 30  1
 16 31  1
 17 32  1
  6 33  1
  6 34  1
  3 35  1
M  END
$$$$
