A:PPR1000
  --CCDC--021119    3D                              

 12 11  0  0  0  0  0  0  0  0999 V2000
   12.2147    8.3998    4.2268 C      0
   12.8387    8.8968    3.2099 O      0
   10.9976    8.4698    4.3358 O      0
   13.0997    7.7158    5.2688 C      0
   14.4398    7.4998    5.2768 C      0
   12.4337    7.2478    6.3017 O      0
   14.5988    5.6079    4.7978 P      0
   15.9868    5.4369    4.1138 O      5
   13.4777    5.3689    3.9048 O      5
   14.5948    4.8219    6.0457 O      5
   15.2362    8.2092    5.4969 H      0
   11.7699    6.5776    5.9915 H      0
  1  2  4
  1  3  4
  1  4  1
  4  5  2
  4  6  1
  5  7  1
  7  8  4
  7  9  4
  7 10  4
  5 11  1
  6 12  1
M  CHG  3   8  -1   9  -1  10  -1
M  END
$$$$
A:SO41002
  --CCDC--021119    3D                              

  5  4  0  0  0  0  0  0  0  0999 V2000
   29.5265   15.2746  -29.9707 S      0
   30.7045   14.7376  -29.2877 O      5
   28.3694   14.4576  -29.7467 O      5
   29.3105   16.6446  -29.4697 O      5
   29.6904   15.3416  -31.4136 O      5
  1  2  4
  1  3  4
  1  4  4
  1  5  4
M  CHG  4   2  -1   3  -1   4  -1   5  -1
M  END
$$$$
A:SO41003
  --CCDC--021119    3D                              

  5  4  0  0  0  0  0  0  0  0999 V2000
   44.5990   25.7854    0.0000 S      0
   43.5689   26.0434    0.9430 O      5
   45.7200   26.2333    0.5460 O      5
   44.5580   24.3124    0.0070 O      5
   44.3519   26.5063   -1.0830 O      5
  1  2  4
  1  3  4
  1  4  4
  1  5  4
M  CHG  4   2  -1   3  -1   4  -1   5  -1
M  END
$$$$
A:SO41004
  --CCDC--021119    3D                              

  5  4  0  0  0  0  0  0  0  0999 V2000
    8.5500   21.7145   23.8969 S      0
    7.4710   21.5375   22.8910 O      5
    9.7091   22.4224   23.3150 O      5
    8.0280   22.5124   25.0309 O      5
    8.9911   20.3805   24.3889 O      5
  1  2  4
  1  3  4
  1  4  4
  1  5  4
M  CHG  4   2  -1   3  -1   4  -1   5  -1
M  END
$$$$
A:SO41005
  --CCDC--021119    3D                              

  5  4  0  0  0  0  0  0  0  0999 V2000
    6.3403   -1.6380    2.3329 S      0
    6.1714   -1.8010    3.8088 O      5
    5.3703   -2.4289    1.5399 O      5
    6.1863   -0.2020    1.9739 O      5
    7.7054   -2.1049    1.9619 O      5
  1  2  4
  1  3  4
  1  4  4
  1  5  4
M  CHG  4   2  -1   3  -1   4  -1   5  -1
M  END
$$$$
