A:5CN1000
  --CCDC--021119    3D                              

 46 48  0  0  0  0  0  0  0  0999 V2000
   45.8258   40.2995   -8.5340 C      0
   45.1698   39.0865   -8.9520 C      0
   45.2708   38.6145  -10.2859 C      0
   46.9448   41.0236   -4.9490 C      0
   46.9538   40.3275   -6.3230 C      0
   44.4487   41.0536   -6.5970 C      0
   44.5527   41.6876   -5.1960 C      0
   45.5647   40.9716   -4.2940 C      0
   45.6147   41.6496   -2.9250 C      0
   46.1678   38.8245  -12.6599 C      0
   48.0357   43.1766   -9.6269 C      0
   48.3297   44.3046   -8.7350 C      0
   49.1937   45.3786   -8.8740 C      0
   47.6096   45.8876   -5.6420 C      0
   46.0298   39.3395  -11.2499 C      0
   46.6828   40.5546  -10.8529 C      0
   46.5858   41.0466   -9.5049 C      0
   45.7647   40.6546   -7.1720 N      0
   45.1338   39.3895  -13.4609 O      0
   47.1637   42.2716   -9.0500 N      0
   48.5297   43.0826  -10.7589 O      0
   49.0706   46.1716   -7.7010 C      0
   48.1366   45.5486   -6.9180 C      0
   47.6726   44.4126   -7.5270 O      0
   47.1896   46.1756   -4.5950 N      0
   43.9848   41.7753   -7.2676 H      0
   43.8205   40.1667   -6.5275 H      0
   43.5733   41.6460   -4.7216 H      0
   44.8589   42.7268   -5.3061 H      0
   45.2641   39.9322   -4.1701 H      0
   45.2144   40.3792  -13.4557 H      0
   46.9758   39.2507   -6.1625 H      0
   47.8521   40.6334   -6.8572 H      0
   46.0806   37.7390  -12.6628 H      0
   47.1388   39.1118  -13.0606 H      0
   47.2622   41.1141  -11.5858 H      0
   47.2335   42.0654   -5.0799 H      0
   47.6627   40.5270   -4.2978 H      0
   49.6103   47.0893   -7.4715 H      0
   46.8754   42.5303   -8.1118 H      0
   45.9169   42.6888   -3.0454 H      0
   44.6290   41.6092   -2.4637 H      0
   46.3338   41.1337   -2.2904 H      0
   49.8453   45.5780   -9.7233 H      0
   44.5844   38.5205   -8.2289 H      0
   44.7660   37.6938  -10.5747 H      0
  1  2  4
  1 17  4
  1 18  1
  2  3  4
  3 15  4
  4  5  1
  4  8  1
  5 18  1
  6  7  1
  6 18  1
  7  8  1
  8  9  1
 10 15  1
 10 19  1
 11 12  1
 11 20  1
 11 21  2
 12 13  2
 12 24  1
 13 22  1
 14 23  1
 14 25  3
 15 16  4
 16 17  4
 17 20  1
 22 23  2
 23 24  1
  6 26  1
  6 27  1
  7 28  1
  7 29  1
  8 30  1
 19 31  1
  5 32  1
  5 33  1
 10 34  1
 10 35  1
 16 36  1
  4 37  1
  4 38  1
 22 39  1
 20 40  1
  9 41  1
  9 42  1
  9 43  1
 13 44  1
  2 45  1
  3 46  1
M  END
$$$$
