A:NAP417
  --CCDC--012419    3D                              

 72 76  0  0  0  0  0  0  0  0999 V2000
  -89.7164  -67.1758   -5.8624 P      0
  -88.6874  -67.7818   -6.8965 O      5
  -89.2814  -67.3908   -4.4973 O      5
  -91.0394  -68.0328   -5.9194 O      0
  -91.9014  -68.4898   -4.6913 C      0
  -92.9894  -69.4738   -4.9944 C      0
  -93.2864  -70.2128   -3.7503 O      0
  -94.2334  -68.7998   -5.2164 C      0
  -94.4983  -68.0348   -6.4015 O      0
  -95.3593  -69.6938   -4.8223 C      0
  -95.2133  -70.9808   -5.6964 O      0
  -94.7233  -70.1738   -3.5393 C      0
  -94.8993  -69.4438   -2.2882 N      0
  -94.1604  -68.3668   -1.8211 C      0
  -94.5673  -67.9378   -0.6620 N      0
  -95.6233  -68.7618   -0.3350 C      0
  -96.4713  -68.8038    0.7791 C      0
  -96.3483  -67.9568    1.7831 N      0
  -97.4373  -69.7538    0.8061 N      0
  -97.5603  -70.6148   -0.2160 C      0
  -96.8053  -70.6448   -1.3081 N      0
  -95.8423  -69.6798   -1.3071 C      0
  -90.3234  -65.8328   -5.9254 O      0
  -90.4494  -64.5559   -6.9375 P      0
  -91.4804  -64.9149   -7.9496 O      5
  -89.1854  -63.9359   -7.4275 O      5
  -91.2834  -63.2179   -6.0784 O      0
  -91.4764  -63.0289   -4.8874 C      0
  -89.9854  -62.4099   -4.3163 C      0
  -89.7564  -62.8239   -3.0632 O      0
  -88.5145  -62.4339   -4.8554 C      0
  -88.0095  -61.5939   -5.8904 O      0
  -87.7105  -62.2379   -3.4983 C      0
  -86.8585  -60.9069   -3.1692 O      0
  -88.6654  -62.5809   -2.3042 C      0
  -88.0855  -63.3599   -1.1981 N      0
  -88.3695  -63.2719    0.1620 C      0
  -87.5705  -64.0519    1.0471 C      0
  -87.7925  -64.0179    2.4902 C      0
  -88.6404  -63.2839    3.0082 O      0
  -87.0675  -64.7929    3.3122 N      0
  -86.4515  -65.0649    0.6890 C      0
  -86.3055  -64.9199   -0.7891 C      0
  -87.0635  -64.1809   -1.6531 C      0
  -96.5313  -71.6357   -6.3155 P      0
  -96.9983  -70.6438   -7.3025 O      5
  -96.0543  -72.8997   -6.9055 O      5
  -97.4233  -71.8027   -5.1514 O      5
  -93.3272  -67.9266   -2.3671 H      0
  -88.1009  -60.6431   -5.6192 H      0
  -96.3502  -69.2475   -4.7521 H      0
  -86.9743  -63.0404   -3.4985 H      0
  -98.3529  -71.3579   -0.1430 H      0
  -87.4613  -60.1179   -3.1762 H      0
  -96.9795  -68.0144    2.5759 H      0
  -95.6225  -67.2476    1.7628 H      0
  -88.8748  -61.6113   -1.8547 H      0
  -92.3624  -67.6038   -4.2573 H      0
  -91.2318  -68.9445   -3.9627 H      0
  -92.7276  -70.1382   -5.8165 H      0
  -86.7467  -66.0794    0.9528 H      0
  -85.5221  -64.8133    1.1979 H      0
  -95.0573  -71.1966   -3.3711 H      0
  -89.1692  -62.6333    0.5341 H      0
  -94.2408  -68.0427   -4.4336 H      0
  -87.2298  -64.7615    4.3137 H      0
  -86.3569  -65.4102    2.9324 H      0
  -88.3250  -63.4574   -5.1754 H      0
  -85.4854  -65.4774   -1.2391 H      0
  -86.8612  -64.2375   -2.7217 H      0
  -92.3872  -63.2119   -4.3192 H      0
  -94.4266  -68.6232   -7.1982 H      0
  1  2  4
  1  3  4
  1  4  1
  1 23  1
  4  5  1
  5  6  1
  6  7  1
  6  8  1
  7 12  1
  8  9  1
  8 10  1
 10 11  1
 10 12  1
 11 45  1
 12 13  1
 13 14  1
 13 22  1
 14 15  2
 15 16  1
 16 17  4
 16 22  4
 17 18  1
 17 19  4
 19 20  4
 20 21  4
 21 22  4
 23 24  1
 24 25  4
 24 26  4
 24 27  1
 27 28  1
 28 29  2
 29 30  1
 29 31  1
 30 35  1
 31 32  1
 31 33  1
 33 34  1
 33 35  1
 35 36  1
 36 37  1
 36 44  1
 37 38  2
 38 39  1
 38 42  1
 39 40  2
 39 41  1
 42 43  1
 43 44  2
 45 46  4
 45 47  4
 45 48  4
 14 49  1
 32 50  1
 10 51  1
 33 52  1
 20 53  1
 34 54  1
 18 55  1
 18 56  1
 35 57  1
  5 58  1
  5 59  1
  6 60  1
 42 61  1
 42 62  1
 12 63  1
 37 64  1
  8 65  1
 41 66  1
 41 67  1
 31 68  1
 43 69  1
 44 70  1
 28 71  1
  9 72  1
M  CHG  7   2  -1   3  -1  25  -1  26  -1  46  -1  47  -1  48  -1
M  END
$$$$
