A:DGN538
  --CCDC--012419    3D                              

 17 16  0  0  0  0  0  0  0  0999 V2000
   22.8337   33.4806   29.8057 N      0
   22.3237   33.5906   28.5126 C      0
   21.8397   32.2635   28.0676 C      0
   21.3127   32.1235   26.9465 O      0
   21.9727   31.2795   28.8116 O      0
   21.2507   34.6016   28.5306 C      0
   21.7627   35.9036   29.1326 C      0
   20.6477   36.8326   29.1316 C      0
   19.4878   36.3966   28.9386 O      0
   21.0117   38.1276   29.3596 N      0
   20.3063   38.8572   29.3792 H      0
   21.9880   38.3615   29.5097 H      0
   23.6023   32.8176   29.8110 H      0
   23.1671   34.3876   30.1162 H      0
   23.1162   33.9236   27.8440 H      0
   22.7711   36.0997   29.4941 H      0
   20.2374   34.4405   28.1657 H      0
  1  2  1
  2  3  1
  2  6  1
  3  4  4
  3  5  4
  6  7  2
  7  8  1
  8  9  2
  8 10  1
 10 11  1
 10 12  1
  1 13  1
  1 14  1
  2 15  1
  7 16  1
  6 17  1
M  END
$$$$
