A:MNO601
  --CCDC--012419    3D                              

 72 74  0  0  0  0  0  0  0  0999 V2000
   34.2131   70.0442   11.3724 C      0
   34.5361   68.8902   10.5874 C      0
   35.7851   68.7482    9.8933 C      0
   36.7551   69.7902    9.9523 C      0
   36.4611   70.9542   10.7184 C      0
   35.1641   71.1032   11.4664 C      0
   34.9431   72.2752   12.2624 C      0
   35.9561   73.3012   12.3354 C      0
   37.1991   73.1712   11.6114 C      0
   37.4431   72.0012   10.8114 C      0
   33.5471   67.8212   10.4704 C      0
   32.5811   67.6662   11.2144 O      0
   33.7681   66.9872    9.4463 N      0
   32.9161   65.8572    9.1463 C      0
   33.8451   64.8572    8.4603 C      0
   34.7281   65.2452    7.6943 O      0
   31.7931   66.2702    8.1693 C      0
   30.7731   65.1482    8.0403 C      0
   31.1221   67.5452    8.6513 C      0
   33.6691   63.5552    8.7413 N      0
   34.5311   62.5542    8.1063 C      0
   34.1511   62.3432    6.6382 C      0
   32.9681   62.3312    6.2912 O      0
   34.3051   61.3002    8.9463 C      0
   32.9251   61.4652    9.4933 C      0
   32.6901   62.9452    9.6593 C      0
   35.1991   62.1832    5.7992 N      0
   35.4541   62.6052    3.3401 C      0
   34.3941   63.4642    2.6941 C      0
   33.2021   62.8632    2.3381 N      0
   34.6211   64.6532    2.4931 O      0
   34.8941   61.7222    4.4502 C      0
   31.9201   62.2982    3.3011 S      0
   31.4051   63.3942    4.0811 O      0
   32.3221   61.1082    4.0021 O      0
   30.5751   61.6912    2.2591 C      0
   34.3581   59.4412    3.8251 O      0
   35.4061   60.2892    4.2821 C      0
   33.2569   70.1119   11.8891 H      0
   31.8592   68.3450    8.7061 H      0
   30.3332   67.8258    7.9550 H      0
   30.6929   67.3788    9.6382 H      0
   34.0104   72.3915   12.8124 H      0
   35.0348   61.2394    9.7524 H      0
   34.3708   60.4055    8.3290 H      0
   36.2197   63.2542    3.7629 H      0
   35.8993   61.9676    2.5778 H      0
   35.9910   67.8443    9.3220 H      0
   35.7805   74.1862   12.9453 H      0
   37.7021   69.6984    9.4224 H      0
   37.9501   73.9576   11.6712 H      0
   32.2330   66.4560    7.1906 H      0
   38.3829   71.9068   10.2693 H      0
   35.5726   62.8643    8.1777 H      0
   30.9385   60.8753    1.6360 H      0
   29.7617   61.3329    2.8883 H      0
   30.2142   62.4995    1.6247 H      0
   34.0234   59.7707    2.9502 H      0
   32.8421   60.9631   10.4561 H      0
   32.1961   61.0462    8.8014 H      0
   31.6728   63.2118    9.3764 H      0
   32.8743   63.2556   10.6868 H      0
   36.1513   62.3746    6.0940 H      0
   30.3383   64.9389    9.0165 H      0
   29.9869   65.4500    7.3498 H      0
   31.2643   64.2528    7.6622 H      0
   35.7721   59.9237    5.2405 H      0
   36.2179   60.2804    3.5563 H      0
   32.4987   65.4343   10.0589 H      0
   33.0704   62.7388    1.3394 H      0
   34.5729   67.1562    8.8514 H      0
   33.8105   61.7021    4.3434 H      0
  1  2  4
  1  6  4
  2  3  4
  2 11  1
  3  4  4
  4  5  4
  5  6  4
  5 10  4
  6  7  4
  7  8  4
  8  9  4
  9 10  4
 11 12  2
 11 13  1
 13 14  1
 14 15  1
 14 17  1
 15 16  2
 15 20  1
 17 18  1
 17 19  1
 20 21  1
 20 26  1
 21 22  1
 21 24  1
 22 23  2
 22 27  1
 24 25  1
 25 26  1
 27 32  1
 28 29  1
 28 32  1
 29 30  1
 29 31  2
 30 33  1
 32 38  1
 33 34  2
 33 35  2
 33 36  1
 37 38  1
  1 39  1
 19 40  1
 19 41  1
 19 42  1
  7 43  1
 24 44  1
 24 45  1
 28 46  1
 28 47  1
  3 48  1
  8 49  1
  4 50  1
  9 51  1
 17 52  1
 10 53  1
 21 54  1
 36 55  1
 36 56  1
 36 57  1
 37 58  1
 25 59  1
 25 60  1
 26 61  1
 26 62  1
 27 63  1
 18 64  1
 18 65  1
 18 66  1
 38 67  1
 38 68  1
 14 69  1
 30 70  1
 13 71  1
 32 72  1
M  END
$$$$
