B:TCL1502
  --CCDC--012419    3D                              

 24 25  0  0  0  0  0  0  0  0999 V2000
   -5.0927   44.2947  154.4992 C      0
   -4.9607   45.4030  155.3587 C      0
   -6.1119   43.3705  154.6931 C      0
   -7.0290   43.5525  155.7665 C      0
   -6.9100   44.6708  156.6370 C      0
   -5.8588   45.6040  156.4241 C      0
   -7.2030   39.0254  158.0001 C      0
   -8.4522   39.2085  157.3735 C      0
   -8.7212   40.3828  156.6450 C      0
   -7.7101   41.3900  156.5370 C      0
   -6.1919   39.9957  157.8732 C      0
   -6.4399   41.1740  157.1477 C      0
   -8.0311   42.6253  155.9564 O      0
   -3.6575   46.4963  155.1089 Cl     0
   -6.9980   37.6941  159.0795 Cl     0
  -10.2964   40.5718  155.9264 Cl     0
   -6.2279   42.2352  153.8696 O      0
   -4.3911   44.1614  153.6771 H      0
   -5.7493   46.4669  157.0794 H      0
   -5.4029   41.6874  153.9429 H      0
   -7.6145   44.8104  157.4555 H      0
   -9.2152   38.4356  157.4535 H      0
   -5.2194   39.8342  158.3360 H      0
   -5.6578   41.9256  157.0515 H      0
  1  2  4
  1  3  4
  2  6  4
  2 14  1
  3  4  4
  3 17  1
  4  5  4
  4 13  1
  5  6  4
  7  8  4
  7 11  4
  7 15  1
  8  9  4
  9 10  4
  9 16  1
 10 12  4
 10 13  1
 11 12  4
  1 18  1
  6 19  1
 17 20  1
  5 21  1
  8 22  1
 11 23  1
 12 24  1
M  END
$$$$
