A:NVA355
  --CCDC--012419    3D                              

 18 17  0  0  0  0  0  0  0  0999 V2000
    5.1941    4.7421  -23.3255 N      0
    4.1381    4.5591  -22.3424 C      0
    3.0531    3.6821  -22.9554 C      0
    1.8560    3.5491  -22.0244 C      0
    0.8320    2.5570  -22.5744 C      0
    4.7131    3.9131  -21.0754 C      0
    4.3521    4.3311  -19.9734 O      0
    5.5471    3.0261  -21.2044 O      0
    4.8126    5.1903  -24.1524 H      0
    5.9256    5.3251  -22.9316 H      0
    3.7133    5.5292  -22.0885 H      0
    3.4641    2.6922  -23.1480 H      0
    2.7249    4.1276  -23.8934 H      0
    1.2968    1.5782  -22.6829 H      0
   -0.0094    2.4852  -21.8868 H      0
    0.4789    2.9008  -23.5455 H      0
    1.3823    4.5234  -21.9144 H      0
    2.2002    3.2008  -21.0517 H      0
  1  2  1
  2  3  1
  2  6  1
  3  4  1
  4  5  1
  6  7  4
  6  8  4
  1  9  1
  1 10  1
  2 11  1
  3 12  1
  3 13  1
  5 14  1
  5 15  1
  5 16  1
  4 17  1
  4 18  1
M  END
$$$$
