A:IMO440
  --CCDC--012419    3D                              

 37 39  0  0  0  0  0  0  0  0999 V2000
   -8.3617   48.8542   46.7057 P      0
   -7.5149   49.5012   45.6740 O      5
   -8.1897   51.4833   50.1786 C      0
  -11.7802   53.3045   51.7051 C      0
  -12.0972   54.7336   51.6142 C      0
  -12.8940   55.0426   52.9208 C      0
  -13.7379   53.7865   53.0157 C      0
  -15.1107   53.8955   52.4579 C      0
   -7.6178   48.5242   47.9433 O      5
   -9.0786   47.6641   46.1708 O      5
  -16.0965   53.9065   49.9707 P      0
  -15.8216   52.4834   49.6678 O      5
  -15.7806   54.7236   48.8060 O      5
  -17.5053   54.2105   50.3036 O      5
  -15.0907   54.3425   51.1553 O      0
  -12.9430   52.7164   52.4089 O      0
  -11.4532   52.8114   50.4445 N      0
  -10.2614   52.1684   50.0746 C      0
   -9.1366   52.1414   50.7784 N      0
   -8.3357   50.9003   49.0110 N      0
   -9.4596   50.8093   48.2542 C      0
   -9.5895   49.9242   47.0436 O      0
  -10.4924   51.5574   48.8760 C      0
  -11.7972   51.8044   48.4491 N      0
  -12.2881   52.5284   49.4078 C      0
  -10.8293   55.3886   51.4372 O      0
  -12.0612   55.2526   54.1214 O      0
  -13.8402   53.5488   54.0735 H      0
   -7.2215   51.4115   50.6718 H      0
  -13.5374   55.9070   52.7635 H      0
  -11.4511   56.0214   53.9707 H      0
  -12.7293   54.9154   50.7463 H      0
  -10.3981   55.0563   50.6068 H      0
  -15.6846   54.5952   53.0637 H      0
  -15.5843   52.9154   52.4887 H      0
  -13.3148   52.8907   49.3839 H      0
  -10.9072   53.1935   52.3467 H      0
  1  2  4
  1  9  4
  1 10  4
  1 22  1
  3 19  4
  3 20  4
  4  5  1
  4 16  1
  4 17  1
  5  6  1
  5 26  1
  6  7  1
  6 27  1
  7  8  1
  7 16  1
  8 15  1
 11 12  4
 11 13  4
 11 14  4
 11 15  1
 17 18  1
 17 25  1
 18 19  4
 18 23  4
 20 21  4
 21 22  1
 21 23  4
 23 24  1
 24 25  2
  7 28  1
  3 29  1
  6 30  1
 27 31  1
  5 32  1
 26 33  1
  8 34  1
  8 35  1
 25 36  1
  4 37  1
M  CHG  6   2  -1   9  -1  10  -1  12  -1  13  -1  14  -1
M  END
$$$$
