C:PAL1312
  --CCDC--012419    3D                              

 22 21  0  0  0  0  0  0  0  0999 V2000
   68.6761   49.8301   64.2610 P      0
   68.0891   49.7531   62.9271 O      5
   69.4262   48.6071   64.2540 O      5
   67.6101   49.3281   65.2319 O      5
   69.4512   51.3370   64.5590 C      0
   68.5441   52.5060   64.1770 C      0
   67.4791   52.7900   64.7950 O      0
   68.9971   53.1980   63.1241 N      0
   68.2821   54.3500   62.6451 C      0
   66.8780   54.0490   62.1602 C      0
   66.1610   55.0490   61.9812 O      0
   66.5230   52.8720   61.8902 O      0
   69.0941   55.0600   61.5642 C      0
   69.3662   54.1870   60.3723 C      0
   68.4861   53.3690   59.9423 O      0
   70.5282   54.2380   59.9733 O      0
   70.3659   51.3893   63.9703 H      0
   69.6962   51.4080   65.6177 H      0
   68.1905   55.0406   63.4821 H      0
   69.8519   52.9072   62.6604 H      0
   70.0460   55.3710   61.9921 H      0
   68.5408   55.9377   61.2335 H      0
  1  2  4
  1  3  4
  1  4  4
  1  5  1
  5  6  1
  6  7  2
  6  8  1
  8  9  1
  9 10  1
  9 13  1
 10 11  4
 10 12  4
 13 14  1
 14 15  4
 14 16  4
  5 17  1
  5 18  1
  9 19  1
  8 20  1
 13 21  1
 13 22  1
M  CHG  3   2  -1   3  -1   4  -1
M  END
$$$$
