A:ASC950
  --CCDC--012419    3D                              

 18 18  0  0  0  0  0  0  0  0999 V2000
    9.2516  -10.8066   32.3002 C      0
   10.3496   -9.7827   32.5732 C      0
    9.8056   -8.5817   32.8432 C      0
    8.3047   -8.7367   32.7542 C      0
    7.5927   -7.6327   31.9262 C      0
    6.1168   -7.6767   31.4472 C      0
    9.3286  -12.0136   32.0382 O      0
   11.7035   -9.9977   32.5672 O      0
   10.2066   -7.6797   33.6142 O      0
    8.0367  -10.1467   32.4122 O      0
    7.8937   -6.3128   32.4422 O      0
    6.2228   -7.0888   30.0692 O      0
    7.9409   -8.6128   33.7731 H      0
    5.4742   -7.0738   32.0871 H      0
    5.7409   -8.6983   31.4145 H      0
   11.9841  -10.3166   31.6696 H      0
   11.1074   -7.3756   33.3276 H      0
    6.8293   -7.6479   29.5165 H      0
  1  2  1
  1  7  2
  1 10  1
  2  3  2
  2  8  1
  3  4  1
  3  9  1
  4  5  1
  4 10  1
  5  6  1
  5 11  2
  6 12  1
  4 13  1
  6 14  1
  6 15  1
  8 16  1
  9 17  1
 12 18  1
M  END
$$$$
