A:NFH1448
  --CCDC--012419    3D                              

 51 50  0  0  0  0  0  0  0  0999 V2000
   66.2757   30.1878  117.6205 C      0
   65.3247   29.1407  114.0657 N      0
   66.8837   29.1807  118.0585 O      0
   66.4927   31.8478  120.5773 C      0
   66.4517   31.4288  118.1224 N      0
   65.4077   32.4688  120.5803 O      0
   67.0047   31.1968  121.6582 N      0
   65.2696   30.0268  116.4436 C      0
   64.0206   29.1347  116.8325 C      0
   63.0396   29.6087  117.9335 C      0
   64.8526   27.9587  113.6648 C      0
   64.2146   27.7937  112.6808 O      0
   66.0947   29.3447  115.2897 C      0
   65.0846   30.1778  113.3498 O      0
   67.3907   31.7548  119.2624 C      0
   68.2807   33.0678  118.9604 C      0
   62.2966   30.8858  117.4795 C      0
   61.9526   28.5647  118.1134 C      0
   69.2648   33.4078  120.1443 C      0
   69.1207   32.8838  117.6685 C      0
   67.4257   34.3739  118.7274 C      0
   66.3517   31.1378  122.9871 C      0
   64.4116   28.1707  117.1545 H      0
   63.4338   29.0035  115.9246 H      0
   64.9294   31.0085  116.1176 H      0
   65.0684   27.0886  114.2830 H      0
   62.4035   27.6181  118.4076 H      0
   61.2591   28.8922  118.8866 H      0
   61.4152   28.4348  117.1752 H      0
   61.7348   30.6752  116.5706 H      0
   61.6118   31.2055  118.2636 H      0
   63.0196   31.6764  117.2844 H      0
   66.8317   34.5822  119.6160 H      0
   68.0912   35.2131  118.5306 H      0
   66.7643   34.2274  117.8748 H      0
   69.9422   32.5705  120.3051 H      0
   69.8404   34.2976  119.8937 H      0
   68.6913   33.5902  121.0519 H      0
   67.8936   30.7198  121.5461 H      0
   65.3747   30.6664  122.8909 H      0
   66.9696   30.5564  123.6697 H      0
   66.2308   32.1473  123.3773 H      0
   66.9503   29.9771  115.0573 H      0
   66.4447   28.3757  115.6423 H      0
   63.5665   29.7820  118.8706 H      0
   64.1032   30.3110  113.2787 H      0
   65.9214   32.1894  117.7095 H      0
   68.4550   32.7110  116.8242 H      0
   69.7104   33.7814  117.4880 H      0
   69.7863   32.0300  117.7867 H      0
   68.0709   30.9131  119.3835 H      0
  1  3  2
  1  5  1
  1  8  1
  2 11  1
  2 13  1
  2 14  1
  4  6  2
  4  7  1
  4 15  1
  5 15  1
  7 22  1
  8  9  1
  8 13  1
  9 10  1
 10 17  1
 10 18  1
 11 12  2
 15 16  1
 16 19  1
 16 20  1
 16 21  1
  9 23  1
  9 24  1
  8 25  1
 11 26  1
 18 27  1
 18 28  1
 18 29  1
 17 30  1
 17 31  1
 17 32  1
 21 33  1
 21 34  1
 21 35  1
 19 36  1
 19 37  1
 19 38  1
  7 39  1
 22 40  1
 22 41  1
 22 42  1
 13 43  1
 13 44  1
 10 45  1
 14 46  1
  5 47  1
 20 48  1
 20 49  1
 20 50  1
 15 51  1
M  END
$$$$
