B:THD1682
  --CCDC--012419    3D                              

 47 48  0  0  0  0  0  0  0  0999 V2000
   14.8791   71.6216   26.0118 N      0
   13.9851   72.5976   25.7478 C      0
   12.6550   72.2196   25.2909 C      0
   14.3121   73.8727   25.8998 N      0
   15.5941   74.2427   26.3448 C      0
   15.7931   75.5647   26.4578 N      0
   16.6011   73.2276   26.6468 C      0
   16.1641   71.9416   26.4548 C      0
   18.0391   73.5256   27.1327 C      0
   18.7511   74.4317   26.0688 N      0
   18.8831   75.8327   26.0668 C      0
   19.6561   76.3777   24.6329 S      0
   19.8311   74.8047   24.0680 C      0
   19.2951   73.8957   24.9509 C      0
   19.3031   72.4276   24.7259 C      0
   20.4991   74.5157   22.7361 C      0
   21.1081   75.6747   22.0622 C      0
   21.1761   75.3387   20.6733 O      0
   20.5611   76.3457   19.6724 P      0
   19.0601   76.4787   19.6654 O      5
   21.2081   75.8217   18.4865 O      5
   21.3911   77.7227   19.7253 O      0
   22.8361   78.3887   19.8933 P      0
   23.1711   78.3837   18.4605 O      5
   22.5881   79.7267   20.4073 O      5
   23.6461   77.5647   20.8333 O      5
   18.5541   76.4367   27.1407 C      0
   18.1271   76.0357   28.2476 O      0
   18.7471   77.8617   26.9247 C      0
   17.4911   78.5307   26.9277 O      0
   16.6911   75.9176   26.7727 H      0
   15.0456   76.2118   26.2283 H      0
   19.2360   78.0175   25.9642 H      0
   19.3721   78.2652   27.7200 H      0
   16.8566   71.1263   26.6588 H      0
   22.1069   75.8581   22.4555 H      0
   20.4926   76.5614   22.2063 H      0
   19.7461   72.0181   23.8193 H      0
   18.8659   71.7607   25.4676 H      0
   18.5885   72.5923   27.2460 H      0
   18.0025   74.0438   28.0899 H      0
   12.1740   71.6003   26.0465 H      0
   12.0601   73.1163   25.1239 H      0
   12.7364   71.6595   24.3605 H      0
   17.0439   78.3912   27.8033 H      0
   18.7924   75.4224   28.6566 H      0
   20.5262   73.5154   22.3065 H      0
  1  2  4
  1  8  4
  2  3  1
  2  4  4
  4  5  4
  5  6  1
  5  7  4
  7  8  4
  7  9  1
  9 10  1
 10 11  1
 10 14  1
 11 12  1
 11 27  2
 12 13  1
 13 14  1
 13 16  2
 14 15  2
 16 17  1
 17 18  1
 18 19  1
 19 20  4
 19 21  4
 19 22  1
 22 23  1
 23 24  4
 23 25  4
 23 26  4
 27 28  1
 27 29  1
 29 30  1
  6 31  1
  6 32  1
 29 33  1
 29 34  1
  8 35  1
 17 36  1
 17 37  1
 15 38  1
 15 39  1
  9 40  1
  9 41  1
  3 42  1
  3 43  1
  3 44  1
 30 45  1
 28 46  1
 16 47  1
M  CHG  5  20  -1  21  -1  24  -1  25  -1  26  -1
M  END
$$$$
