A:BOG1006
  --CCDC--012419    3D                              

 48 48  0  0  0  0  0  0  0  0999 V2000
   27.0322   85.1856   33.5285 C      0
   26.0683   84.2266   33.0965 O      0
   26.8462   85.5136   35.0196 C      0
   25.5313   85.9936   35.2676 O      0
   27.8622   86.5766   35.4386 C      0
   27.7872   86.7646   36.8447 O      0
   29.2982   86.1746   35.0456 C      0
   30.1771   87.2765   35.2416 O      0
   29.3792   85.7336   33.5795 C      0
   28.3822   84.7246   33.3045 O      0
   30.7741   85.1706   33.2845 C      0
   30.9281   83.8996   33.9075 O      0
   26.0423   84.0896   31.6774 C      0
   26.7282   82.7876   31.2464 C      0
   26.7912   82.7166   29.7184 C      0
   27.0552   81.2886   29.2333 C      0
   27.0792   81.2116   27.6963 C      0
   25.7193   81.5806   27.0812 C      0
   25.6403   81.2066   25.5992 C      0
   26.4042   82.2026   24.7321 C      0
   24.8708   85.2995   35.0067 H      0
   29.6196   85.3500   35.6801 H      0
   30.1614   87.5467   36.1970 H      0
   29.2000   86.5952   32.9381 H      0
   27.6127   87.5147   34.9451 H      0
   25.5677   82.6544   27.1815 H      0
   24.9345   81.0514   27.6198 H      0
   31.5282   85.8550   33.6703 H      0
   30.8990   85.0621   32.2082 H      0
   30.2421   83.2735   33.5562 H      0
   26.5623   84.9338   31.2271 H      0
   25.0075   84.0778   31.3383 H      0
   26.1619   81.9380   31.6249 H      0
   27.7386   82.7599   31.6517 H      0
   27.5935   83.3637   29.3668 H      0
   25.8423   83.0597   29.3088 H      0
   26.2681   80.6361   29.6083 H      0
   28.0174   80.9557   29.6196 H      0
   27.3359   80.1960   27.3988 H      0
   27.8338   81.9015   27.3212 H      0
   24.5957   81.1972   25.2913 H      0
   26.0685   80.2150   25.4607 H      0
   27.4516   82.2146   25.0301 H      0
   26.3276   81.9074   23.6867 H      0
   25.9789   83.1968   24.8607 H      0
   26.8842   86.1003   32.9565 H      0
   27.9914   85.9084   37.3045 H      0
   27.0125   84.6112   35.6062 H      0
  1  2  1
  1  3  1
  1 10  1
  2 13  1
  3  4  1
  3  5  1
  5  6  1
  5  7  1
  7  8  1
  7  9  1
  9 10  1
  9 11  1
 11 12  1
 13 14  1
 14 15  1
 15 16  1
 16 17  1
 17 18  1
 18 19  1
 19 20  1
  4 21  1
  7 22  1
  8 23  1
  9 24  1
  5 25  1
 18 26  1
 18 27  1
 11 28  1
 11 29  1
 12 30  1
 13 31  1
 13 32  1
 14 33  1
 14 34  1
 15 35  1
 15 36  1
 16 37  1
 16 38  1
 17 39  1
 17 40  1
 19 41  1
 19 42  1
 20 43  1
 20 44  1
 20 45  1
  1 46  1
  6 47  1
  3 48  1
M  END
$$$$
