A:LS2299
  --CCDC--012419    3D                              

 42 45  0  0  0  0  0  0  0  0999 V2000
   26.5496   15.5694   13.4079 N      0
   26.0956   14.6944   12.4599 C      0
   26.7906   13.3854   12.6279 C      0
   28.5816   12.6574   14.4329 C      0
   29.2926   13.1434   15.6759 C      0
   29.0866   14.5134   16.1558 C      0
   28.1726   15.4354   15.4189 C      0
   27.4446   14.9384   14.2279 C      0
   27.6546   13.5734   13.7639 C      0
   25.2606   14.8734   11.5719 O      0
   26.5876   12.2053   11.8109 N      0
   29.0336   11.0613   14.0639 S      0
   30.0336   10.9523   15.4459 C      0
   30.0636   12.0933   16.1858 N      0
   26.1896   12.2203   10.6239 N      0
   25.9416   11.1173    9.8669 C      0
   24.6697   11.0853    9.1059 C      0
   24.2737    9.8513    8.3949 C      0
   25.1696    8.6652    8.4119 C      0
   26.4266    8.6912    9.1899 C      0
   26.8636    9.9293    9.8229 C      0
   24.8907    7.4672    7.5499 C      0
   26.0096    7.1892    6.1739 S      0
   26.3306    8.4562    5.5639 O      0
   25.4876    6.1382    5.3389 O      0
   27.4276    6.5772    6.7499 N      0
   27.4906    5.3731    7.5609 C      0
   23.8872    7.5800    7.1422 H      0
   24.9262    6.5855    8.1881 H      0
   28.0422   16.4635   15.7534 H      0
   28.2921    7.0611    6.5291 H      0
   24.0304   11.9663    9.0709 H      0
   29.6011   14.8589   17.0513 H      0
   23.3264    9.8111    7.8592 H      0
   27.0250    7.7869    9.2898 H      0
   26.2655   16.5403   13.4906 H      0
   26.0402   13.1268   10.1923 H      0
   27.0829    4.5347    6.9982 H      0
   28.5272    5.1653    7.8221 H      0
   26.9090    5.5171    8.4703 H      0
   30.5929   10.0556   15.7086 H      0
   27.8572    9.9943   10.2639 H      0
  1  2  1
  1  8  1
  2  3  1
  2 10  2
  3  9  1
  3 11  2
  4  5  4
  4  9  4
  4 12  1
  5  6  4
  5 14  1
  6  7  4
  7  8  4
  8  9  4
 11 15  1
 12 13  1
 13 14  2
 15 16  1
 16 17  4
 16 21  4
 17 18  4
 18 19  4
 19 20  4
 19 22  1
 20 21  4
 22 23  1
 23 24  2
 23 25  2
 23 26  1
 26 27  1
 22 28  1
 22 29  1
  7 30  1
 26 31  1
 17 32  1
  6 33  1
 18 34  1
 20 35  1
  1 36  1
 15 37  1
 27 38  1
 27 39  1
 27 40  1
 13 41  1
 21 42  1
M  END
$$$$
