B:C24999
  --CCDC--012419    3D                              

 67 70  0  0  0  0  0  0  0  0999 V2000
   14.3236  -11.7534   20.7757 C      0
   15.3196  -11.9164   19.9127 N      0
   16.7246  -11.6234   20.1957 C      0
   17.5045  -12.6654   21.0017 C      0
   16.8845  -13.4195   21.9158 N      0
   17.9315  -14.1185   22.3808 C      0
   17.8535  -15.0495   23.3698 C      0
   18.9505  -15.7216   23.8078 C      0
   18.7865  -16.6726   24.8769 C      0
   17.7885  -17.4006   24.7809 O      0
   19.5945  -16.7256   25.9639 N      0
   20.5634  -15.8056   26.1399 C      0
   20.2094  -14.6175   26.7019 C      0
   21.0894  -13.5425   26.7539 C      0
   22.3534  -13.6705   26.2259 C      0
   22.7354  -14.8775   25.6559 C      0
   21.7974  -15.9496   25.6249 N      0
   19.3944  -17.7276   27.0139 C      0
   18.2974  -17.3396   27.9940 C      0
   18.2054  -18.2716   29.1890 C      0
   18.7684  -17.9916   30.2480 O      0
   17.4124  -19.4897   29.1160 O      0
   18.1724  -20.6637   28.7120 C      0
   19.0204  -21.1677   29.8710 C      0
   20.1385  -15.3515   23.1558 C      0
   20.2265  -14.3915   22.1378 C      0
   19.0855  -13.7825   21.7788 C      0
   18.8305  -12.8374   20.8577 N      0
   19.7605  -12.1874   19.9187 C      0
   14.3136  -10.7754   21.6877 C      0
   13.2726  -10.7004   22.6138 C      0
   12.2656  -11.6014   22.6338 C      0
   11.2706  -11.5564   23.5978 C      0
   11.2416  -10.5864   24.5098 N      0
   10.3276  -12.4914   23.6348 N      3
   12.2986  -12.5634   21.6977 C      0
   13.3346  -12.6424   20.7707 C      0
   19.7491  -11.1110   20.0832 H      0
   20.7673  -12.5690   20.0823 H      0
   19.4528  -12.4017   18.8963 H      0
   13.3349  -13.4426   20.0320 H      0
   10.5056  -10.5687   25.2087 H      0
   11.9554   -9.8648   24.5061 H      0
   20.3268  -17.8469   27.5639 H      0
   19.1253  -18.6735   26.5462 H      0
   18.8224  -20.4017   27.8785 H      0
   17.4838  -21.4486   28.4026 H      0
   20.7797  -12.6035   27.2104 H      0
   11.4964  -13.2991   21.6627 H      0
   19.2108  -14.5062   27.1218 H      0
   17.3434  -17.3546   27.4691 H      0
   18.4970  -16.3320   28.3556 H      0
   21.0583  -15.8466   23.4636 H      0
   18.3733  -21.4328   30.7059 H      0
   19.5827  -22.0451   29.5548 H      0
   19.7119  -20.3860   30.1818 H      0
   15.0893  -12.2700   18.9896 H      0
   15.1159  -10.0393   21.7076 H      0
    9.6019  -12.4526   24.3434 H      0
   10.3328  -13.2447   22.9545 H      0
   23.0482  -12.8324   26.2548 H      0
   16.7593  -10.6865   20.7497 H      0
   17.2329  -11.4994   19.2406 H      0
   23.7341  -15.0026   25.2400 H      0
   16.8861  -15.2619   23.8226 H      0
   13.2715   -9.8912   23.3426 H      0
   21.1756  -14.1513   21.6609 H      0
  1  2  1
  1 30  4
  1 37  4
  2  3  1
  3  4  1
  4  5  2
  4 28  1
  5  6  1
  6  7  4
  6 27  4
  7  8  4
  8  9  1
  8 25  4
  9 10  2
  9 11  1
 11 12  1
 11 18  1
 12 13  4
 12 17  4
 13 14  4
 14 15  4
 15 16  4
 16 17  4
 18 19  1
 19 20  1
 20 21  2
 20 22  1
 22 23  1
 23 24  1
 25 26  4
 26 27  4
 27 28  1
 28 29  1
 30 31  4
 31 32  4
 32 33  1
 32 36  4
 33 34  1
 33 35  2
 36 37  4
 29 38  1
 29 39  1
 29 40  1
 37 41  1
 34 42  1
 34 43  1
 18 44  1
 18 45  1
 23 46  1
 23 47  1
 14 48  1
 36 49  1
 13 50  1
 19 51  1
 19 52  1
 25 53  1
 24 54  1
 24 55  1
 24 56  1
  2 57  1
 30 58  1
 35 59  1
 35 60  1
 15 61  1
  3 62  1
  3 63  1
 16 64  1
  7 65  1
 31 66  1
 26 67  1
M  CHG  1  35   1
M  END
$$$$
