D:DEX401
  --CCDC--012419    3D                              

 57 60  0  0  0  0  0  0  0  0999 V2000
   18.7300   25.6488   -9.8409 C      0
   19.4660   25.6088   -8.7339 C      0
   20.7129   26.4388   -8.6869 C      0
   21.1279   27.1708   -9.9269 C      0
   20.3440   27.1598  -11.0029 C      0
   20.8339   27.9058  -12.2088 C      0
   20.8239   26.9788  -13.4198 C      0
   19.5190   26.2028  -13.5718 C      0
   19.0430   25.5138  -12.2918 C      0
   19.0220   26.4468  -11.0789 C      0
   17.8271   24.6047  -12.4538 C      0
   17.7891   23.7827  -13.7388 C      0
   18.1261   24.6057  -14.9808 C      0
   19.4930   25.2528  -14.7658 C      0
   19.9610   25.7078  -16.1438 C      0
   19.3560   24.6717  -17.0858 C      0
   18.4500   23.7887  -16.2308 C      0
   17.0011   25.5978  -15.2758 C      0
   17.9301   27.5128  -11.1399 C      0
   17.2241   23.2907  -16.9798 C      0
   16.5001   22.0107  -16.5928 C      0
   20.4409   23.9547  -17.8818 C      0
   20.0230   24.6057  -12.0178 F      0
   21.3739   26.5158   -7.6539 O      0
   16.6361   25.3778  -12.4438 O      0
   19.1980   22.6327  -15.8798 O      0
   16.7651   23.9317  -17.9238 O      0
   15.1472   22.0637  -17.0178 O      0
   16.6582   26.0294  -13.1928 H      0
   16.5327   21.8924  -15.5107 H      0
   16.9925   21.1622  -17.0657 H      0
   16.7888   23.3687  -13.8571 H      0
   18.5101   22.9711  -13.6536 H      0
   18.7233   25.2023  -17.7958 H      0
   17.7972   23.9193  -11.6081 H      0
   18.7627   26.9555  -13.7892 H      0
   18.6681   22.0731  -15.2536 H      0
   21.6406   26.2659  -13.3167 H      0
   20.9765   27.5784  -14.3160 H      0
   16.8761   26.2679  -14.4265 H      0
   17.2522   26.1782  -16.1623 H      0
   16.0736   25.0539  -15.4487 H      0
   15.1142   22.1696  -18.0046 H      0
   21.1194   23.4486  -17.1965 H      0
   19.9813   23.2227  -18.5442 H      0
   20.9971   24.6807  -18.4731 H      0
   21.8487   28.2582  -12.0300 H      0
   20.1821   28.7574  -12.3983 H      0
   17.8255   25.0424   -9.8504 H      0
   20.1574   24.4338  -14.4942 H      0
   22.0723   27.7127   -9.9479 H      0
   17.9773   28.1324  -10.2455 H      0
   18.0792   28.1352  -12.0209 H      0
   16.9551   27.0310  -11.1966 H      0
   21.0481   25.7032  -16.2067 H      0
   19.5884   26.7054  -16.3715 H      0
   19.1713   24.9912   -7.8867 H      0
  1  2  2
  1 10  1
  2  3  1
  3  4  1
  3 24  2
  4  5  2
  5  6  1
  5 10  1
  6  7  1
  7  8  1
  8  9  1
  8 14  1
  9 10  1
  9 11  1
  9 23  1
 10 19  1
 11 12  1
 11 25  1
 12 13  1
 13 14  1
 13 17  1
 13 18  1
 14 15  1
 15 16  1
 16 17  1
 16 22  1
 17 20  1
 17 26  1
 20 21  1
 20 27  2
 21 28  1
 25 29  1
 21 30  1
 21 31  1
 12 32  1
 12 33  1
 16 34  1
 11 35  1
  8 36  1
 26 37  1
  7 38  1
  7 39  1
 18 40  1
 18 41  1
 18 42  1
 28 43  1
 22 44  1
 22 45  1
 22 46  1
  6 47  1
  6 48  1
  1 49  1
 14 50  1
  4 51  1
 19 52  1
 19 53  1
 19 54  1
 15 55  1
 15 56  1
  2 57  1
M  END
$$$$
