A:SO4616
  --CCDC--012419    3D                              

  5  4  0  0  0  0  0  0  0  0999 V2000
   39.0028    7.1096   15.3340 S      0
   38.3409    7.8865   14.2341 O      5
   40.3598    6.6796   14.8490 O      5
   39.0679    7.9535   16.5659 O      5
   38.2257    5.9006   15.6830 O      5
  1  2  4
  1  3  4
  1  4  4
  1  5  4
M  CHG  4   2  -1   3  -1   4  -1   5  -1
M  END
$$$$
