A:2CA300
  --CCDC--012419    3D                              

 69 72  0  0  0  0  0  0  0  0999 V2000
   29.6303  -32.9153   -2.0180 S      0
   28.8173  -33.6093   -2.9910 O      0
   29.0093  -32.6543   -0.7440 O      0
   34.9613  -38.0913   -2.0460 O      0
   37.4433  -36.1143   -0.9680 O      0
   39.0133  -38.0213    0.1770 O      0
   34.1853  -36.0143   -2.4720 N      0
   37.4193  -37.2683   -2.9830 N      0
   30.7403  -31.4513   -4.0110 N      0
   35.0623  -36.9933   -2.6440 C      0
   36.2383  -36.6683   -3.6230 C      0
   35.9393  -37.3453   -4.9760 C      0
   36.5903  -36.8633   -6.3110 C      0
   37.3163  -37.9993   -6.9810 C      0
   37.6383  -35.8033   -6.0820 C      0
   37.8263  -37.0483   -1.6900 C      0
   38.7853  -38.0403   -1.1800 C      0
   39.5083  -38.9733   -1.7960 C      0
   40.9304  -40.9304   -0.6930 C      0
   41.4384  -41.3504    0.5730 C      0
   41.1424  -40.6114    1.7670 C      0
   40.2584  -39.5043    1.7610 C      0
   39.7944  -39.0823    0.4420 C      0
   40.1294  -39.7523   -0.7520 C      0
   30.2363  -31.3393   -2.7460 C      0
   30.2223  -30.0903   -2.0310 C      0
   31.0533  -29.0393   -2.5310 C      0
   31.5973  -29.1323   -3.8390 C      0
   31.4273  -30.3473   -4.5490 C      0
   32.9653  -36.2613   -1.5070 C      0
   33.0953  -35.3753   -0.2080 C      0
   33.2273  -33.8503   -0.4020 C      0
   32.0293  -33.0973   -1.0340 C      0
   30.9163  -33.8593   -1.6960 N      0
   31.3363  -34.6803   -2.8710 C      0
   30.5643  -36.5963   -1.5880 O      0
   31.6633  -36.1073   -2.3500 C      0
   31.7647  -36.7532   -3.2209 H      0
   35.8191  -36.4782   -6.9765 H      0
   39.6104  -39.1191   -2.8704 H      0
   32.1303  -28.2936   -4.2844 H      0
   33.9782  -35.7140    0.3320 H      0
   32.2085  -35.5523    0.3988 H      0
   34.0929  -33.6775   -1.0398 H      0
   33.4058  -33.4121    0.5788 H      0
   31.8452  -30.4297   -5.5512 H      0
   29.6041  -29.9512   -1.1453 H      0
   31.2681  -28.1705   -1.9105 H      0
   30.4854  -36.0733   -0.7476 H      0
   41.6104  -40.9099    2.7039 H      0
   32.2190  -34.2422   -3.3344 H      0
   30.5287  -34.7266   -3.6001 H      0
   33.0170  -37.3015   -1.1889 H      0
   41.1502  -41.4983   -1.5958 H      0
   36.6128  -38.8015   -7.1989 H      0
   37.7639  -37.6470   -7.9091 H      0
   38.0974  -38.3713   -6.3196 H      0
   38.4265  -36.2035   -5.4459 H      0
   38.0624  -35.4996   -7.0379 H      0
   37.1828  -34.9414   -5.5967 H      0
   36.3621  -35.5930   -3.7425 H      0
   34.8623  -37.2733   -5.1201 H      0
   36.2210  -38.3910   -4.8611 H      0
   39.9465  -39.0030    2.6761 H      0
   37.9816  -37.8990   -3.5454 H      0
   34.2974  -35.1264   -2.9509 H      0
   32.4427  -32.4295   -1.7884 H      0
   31.5750  -32.5089   -0.2382 H      0
   42.0587  -42.2433    0.6336 H      0
  1  2  2
  1  3  2
  1 25  1
  1 34  1
  4 10  2
  5 16  2
  6 17  1
  6 23  1
  7 10  1
  7 30  1
  8 11  1
  8 16  1
  9 25  4
  9 29  4
 10 11  1
 11 12  1
 12 13  1
 13 14  1
 13 15  1
 16 17  1
 17 18  2
 18 24  1
 19 20  4
 19 24  4
 20 21  4
 21 22  4
 22 23  4
 23 24  4
 25 26  4
 26 27  4
 27 28  4
 28 29  4
 30 31  1
 30 37  1
 31 32  1
 32 33  1
 33 34  1
 34 35  1
 35 37  1
 36 37  1
 37 38  1
 13 39  1
 18 40  1
 28 41  1
 31 42  1
 31 43  1
 32 44  1
 32 45  1
 29 46  1
 26 47  1
 27 48  1
 36 49  1
 21 50  1
 35 51  1
 35 52  1
 30 53  1
 19 54  1
 14 55  1
 14 56  1
 14 57  1
 15 58  1
 15 59  1
 15 60  1
 11 61  1
 12 62  1
 12 63  1
 22 64  1
  8 65  1
  7 66  1
 33 67  1
 33 68  1
 20 69  1
M  END
$$$$
