A:ZMR479
  --CCDC--012419    3D                              

 43 43  0  0  0  0  0  0  0  0999 V2000
   23.7620   19.9743   65.0385 C      0
   24.3300   21.0732   65.1555 O      0
   22.6281   19.7853   65.5075 O      0
   24.4359   18.9534   64.2656 C      0
   23.8310   17.7825   63.8146 C      0
   24.4859   16.9126   62.7557 C      0
   26.0438   17.0426   62.8357 C      0
   26.6918   16.3396   61.7548 N      0
   27.2847   15.1637   61.9108 C      0
   27.2777   14.5678   62.9867 O      0
   27.9157   14.5548   60.6809 C      0
   26.4338   18.5154   62.7557 C      0
   25.7368   19.2484   63.7856 O      0
   27.9247   18.7644   63.0087 C      0
   28.1376   18.4554   64.3546 O      0
   28.2696   20.2523   62.7287 C      0
   27.9247   20.5083   61.4138 O      0
   29.7555   20.5743   62.9227 C      0
   30.5294   19.6543   62.2088 O      0
   24.0760   15.5467   62.9537 N      0
   23.9360   14.5758   62.0458 C      0
   24.0770   14.8218   60.7529 N      3
   23.7000   13.3389   62.4448 N      3
   24.1538   17.2423   61.7724 H      0
   22.8692   17.4848   64.2296 H      0
   26.3878   16.6333   63.7845 H      0
   26.6938   16.7646   60.8331 H      0
   30.0047   20.5140   63.9811 H      0
   29.9594   21.5801   62.5584 H      0
   28.6835   15.2249   60.2972 H      0
   28.3657   13.5976   60.9399 H      0
   27.1526   14.4028   59.9189 H      0
   26.1597   18.9115   61.7790 H      0
   28.5262   18.1144   62.3750 H      0
   27.8977   17.5059   64.5182 H      0
   27.6766   20.8874   63.3851 H      0
   26.9534   20.3442   61.2885 H      0
   30.3023   19.7092   61.2436 H      0
   23.8648   15.2860   63.9117 H      0
   23.9669   14.0712   60.0785 H      0
   24.2952   15.7609   60.4358 H      0
   23.5926   12.5968   61.7607 H      0
   23.6260   13.1306   63.4354 H      0
  1  2  4
  1  3  4
  1  4  1
  4  5  2
  4 13  1
  5  6  1
  6  7  1
  6 20  1
  7  8  1
  7 12  1
  8  9  1
  9 10  2
  9 11  1
 12 13  1
 12 14  1
 14 15  1
 14 16  1
 16 17  1
 16 18  1
 18 19  1
 20 21  1
 21 22  4
 21 23  4
  6 24  1
  5 25  1
  7 26  1
  8 27  1
 18 28  1
 18 29  1
 11 30  1
 11 31  1
 11 32  1
 12 33  1
 14 34  1
 15 35  1
 16 36  1
 17 37  1
 19 38  1
 20 39  1
 22 40  1
 22 41  1
 23 42  1
 23 43  1
M  CHG  2  22   1  23   1
M  END
$$$$
