A:968322
  --CCDC--012419    3D                              

 39 41  0  0  0  0  0  0  0  0999 V2000
   35.8650   29.8957   23.2968 O      0
   34.9700   29.0787   23.5078 C      0
   33.9150   29.3717   24.3348 O      0
   34.8941   27.6607   22.8738 C      0
   34.4061   26.8037   23.6918 O      0
   34.2071   27.4377   21.5977 N      0
   34.1382   26.0786   20.9957 C      0
   32.8482   25.6866   20.3657 C      0
   32.6132   24.4076   19.7357 C      0
   33.6603   23.4226   19.6896 C      0
   34.9293   23.7196   20.2697 C      0
   35.2222   25.0336   20.9357 C      0
   36.6212   25.1506   21.4827 C      0
   37.0933   24.0666   22.1947 O      0
   37.2962   26.1326   21.3327 O      0
   33.6060   28.5677   20.9167 C      0
   32.3090   29.0757   21.3407 C      0
   31.6579   30.2057   20.6947 C      0
   32.2899   30.8748   19.5826 C      0
   33.5950   30.3938   19.1216 C      0
   34.2389   31.0488   18.0006 C      0
   35.5490   30.5878   17.5156 C      0
   36.2010   29.4797   18.1576 C      0
   37.4511   29.0267   17.7126 O      0
   35.5610   28.8257   19.2686 C      0
   34.2570   29.2517   19.7807 C      0
   31.6417   24.1891   19.2949 H      0
   38.1148   29.7616   17.7860 H      0
   36.0239   31.0854   16.6713 H      0
   35.9266   27.3560   22.7094 H      0
   33.4857   22.4577   19.2158 H      0
   33.4886   27.0799   23.9524 H      0
   31.8063   31.7204   19.0959 H      0
   33.7485   31.8899   17.5128 H      0
   36.0639   27.9853   19.7448 H      0
   31.8055   28.5902   22.1754 H      0
   35.7143   22.9660   20.2280 H      0
   30.6882   30.5486   21.0524 H      0
   32.0319   26.4073   20.3803 H      0
  1  2  4
  2  3  4
  2  4  1
  4  5  1
  4  6  1
  6  7  1
  6 16  1
  7  8  4
  7 12  4
  8  9  4
  9 10  4
 10 11  4
 11 12  4
 12 13  1
 13 14  4
 13 15  4
 16 17  4
 16 26  4
 17 18  4
 18 19  4
 19 20  4
 20 21  4
 20 26  4
 21 22  4
 22 23  4
 23 24  1
 23 25  4
 25 26  4
  9 27  1
 24 28  1
 22 29  1
  4 30  1
 10 31  1
  5 32  1
 19 33  1
 21 34  1
 25 35  1
 17 36  1
 11 37  1
 18 38  1
  8 39  1
M  END
$$$$
