A:6751001
  --CCDC--012419    3D                              

 38 40  0  0  0  0  0  0  0  0999 V2000
   16.9099   19.4811   33.7509 N      3
   18.2189   19.7911   33.9589 C      0
   18.6639   20.9891   34.4489 N      0
   19.1859   18.7151   33.5779 C      0
   18.9159   17.6691   32.6209 C      0
   19.7699   16.5851   32.2749 C      0
   21.0349   16.5471   32.9089 C      0
   21.9799   15.5861   32.5709 C      0
   23.3189   15.5601   33.1029 C      0
   23.5419   16.6871   34.0259 C      0
   22.6569   17.6791   34.3919 C      0
   21.4129   17.5941   33.8389 C      0
   20.5119   18.5881   34.1199 C      0
   24.3419   14.5751   32.7809 C      0
   25.1789   14.3331   33.6429 O      0
   24.3969   14.1851   31.4669 N      0
   25.3719   13.3341   30.9918 C      0
   25.8209   13.7001   29.7188 C      0
   26.7489   12.8941   29.0588 C      0
   27.2649   11.7530   29.7488 C      0
   26.8999   11.4270   31.0528 C      0
   25.9429   12.2340   31.6889 C      0
   24.5318   16.7436   34.4763 H      0
   19.6583   21.1471   34.5772 H      0
   17.9995   21.7195   34.6841 H      0
   27.3428   10.5730   31.5631 H      0
   19.4658   15.8232   31.5586 H      0
   23.6955   14.5351   30.8221 H      0
   20.8314   19.3567   34.8222 H      0
   21.6925   14.8089   31.8643 H      0
   16.6564   18.5694   33.3838 H      0
   16.1873   20.1616   33.9629 H      0
   27.9753   11.1099   29.2315 H      0
   27.0716   13.1277   28.0453 H      0
   25.6391   12.0183   32.7121 H      0
   25.4487   14.6078   29.2461 H      0
   22.9332   18.4785   35.0779 H      0
   17.9559   17.7144   32.1089 H      0
  1  2  2
  2  3  1
  2  4  1
  4  5  4
  4 13  4
  5  6  4
  6  7  4
  7  8  4
  7 12  4
  8  9  4
  9 10  4
  9 14  1
 10 11  4
 11 12  4
 12 13  4
 14 15  2
 14 16  1
 16 17  1
 17 18  4
 17 22  4
 18 19  4
 19 20  4
 20 21  4
 21 22  4
 10 23  1
  3 24  1
  3 25  1
 21 26  1
  6 27  1
 16 28  1
 13 29  1
  8 30  1
  1 31  1
  1 32  1
 20 33  1
 19 34  1
 22 35  1
 18 36  1
 11 37  1
  5 38  1
M  CHG  1   1   1
M  END
$$$$
