A:PP21904
  --CCDC--012419    3D                              

 37 39  0  0  0  0  0  0  0  0999 V2000
   25.5376   37.2866   83.8733 C      0
   26.5286   36.8007   83.0653 N      0
   26.1842   35.7927   82.2855 C      0
   24.9152   35.2647   82.2926 N      0
   23.9101   35.6733   83.0532 C      0
   24.2122   36.7816   83.9356 C      0
   23.4559   37.5386   84.8382 C      0
   24.2676   38.5154   85.3221 N      0
   25.5356   38.3628   84.7597 N      0
   22.0973   37.3287   85.3785 C      0
   21.7428   36.0919   85.9792 C      0
   20.5111   35.9022   86.6432 C      0
   19.6057   36.9924   86.6885 C      0
   19.9158   38.2303   86.1231 C      0
   21.1979   38.4361   85.4248 C      0
   26.6958   39.2924   85.1249 C      0
   27.1490   40.0544   83.8069 C      0
   27.8429   38.6579   85.9721 C      0
   26.2355   40.3766   86.2327 C      0
   22.6180   35.1693   82.9063 N      0
   17.9872   36.7987   87.4291 Cl     0
   22.4449   35.2612   85.9259 H      0
   26.3129   40.6325   83.4161 H      0
   27.9755   40.7239   84.0406 H      0
   27.4693   39.3292   83.0603 H      0
   26.9291   35.3661   81.6154 H      0
   21.8711   35.5047   83.5063 H      0
   22.4244   34.4671   82.1994 H      0
   19.2045   39.0514   86.1983 H      0
   21.4477   39.3909   84.9646 H      0
   20.2642   34.9479   87.1063 H      0
   28.2835   37.8275   85.4224 H      0
   28.6067   39.4088   86.1691 H      0
   27.4389   38.2948   86.9160 H      0
   25.9041   39.8589   87.1316 H      0
   27.0754   41.0256   86.4764 H      0
   25.4171   40.9757   85.8362 H      0
  1  2  4
  1  6  4
  1  9  1
  2  3  4
  3  4  4
  4  5  4
  5  6  4
  5 20  1
  6  7  1
  7  8  2
  7 10  1
  8  9  1
  9 16  1
 10 11  4
 10 15  4
 11 12  4
 12 13  4
 13 14  4
 13 21  1
 14 15  4
 16 17  1
 16 18  1
 16 19  1
 11 22  1
 17 23  1
 17 24  1
 17 25  1
  3 26  1
 20 27  1
 20 28  1
 14 29  1
 15 30  1
 12 31  1
 18 32  1
 18 33  1
 18 34  1
 19 35  1
 19 36  1
 19 37  1
M  END
$$$$
