A:1001004
  --CCDC--012419    3D                              

 30 32  0  0  0  0  0  0  0  0999 V2000
  -22.0508   32.0506   62.8722 N      0
  -21.3008   32.3286   63.9992 N      0
  -20.3698   31.4196   64.2762 C      0
  -20.5267   30.5337   63.2922 N      0
  -21.5297   30.8527   62.4082 N      0
  -19.3937   31.4206   65.4163 C      0
  -18.4247   30.3227   65.5063 C      0
  -19.4238   32.4016   66.3263 O      0
  -14.8917   26.5847   69.6823 C      0
  -15.8118   27.5867   70.1244 C      0
  -16.4297   28.4957   69.2033 C      0
  -16.1237   28.3867   67.7963 C      0
  -15.1947   27.3657   67.3483 C      0
  -14.5787   26.4647   68.2853 C      0
  -16.5627   29.1217   66.6113 C      0
  -15.9007   28.5287   65.5163 C      0
  -15.0957   27.4947   65.9663 N      0
  -17.4677   30.1837   66.6063 C      0
  -17.4527   30.9937   67.5093 O      0
  -16.1628   27.6997   71.8184 Cl     0
  -20.3110   32.4126   66.7720 H      0
  -14.4289   25.9133   70.4041 H      0
  -17.1207   29.2580   69.5603 H      0
  -16.0060   28.8362   64.4769 H      0
  -14.5149   26.9127   65.3711 H      0
  -13.8835   25.7009   67.9399 H      0
  -19.9567   29.6985   63.2039 H      0
  -21.1566   30.9653   61.4710 H      0
  -22.8084   32.5975   62.4757 H      0
  -18.4166   29.5737   64.7158 H      0
  1  2  1
  1  5  1
  2  3  2
  3  4  1
  3  6  1
  4  5  1
  6  7  2
  6  8  1
  7 18  1
  9 10  4
  9 14  4
 10 11  4
 10 20  1
 11 12  4
 12 13  4
 12 15  1
 13 14  4
 13 17  1
 15 16  2
 15 18  1
 16 17  1
 18 19  2
  8 21  1
  9 22  1
 11 23  1
 16 24  1
 17 25  1
 14 26  1
  4 27  1
  5 28  1
  1 29  1
  7 30  1
M  END
$$$$
