D:FMN4006
  --CCDC--012419    3D                              

 50 52  0  0  0  0  0  0  0  0999 V2000
  -20.3402    9.5662  -44.4152 N      0
  -19.3902    9.9722  -43.5282 C      0
  -19.1502   11.1222  -43.2672 O      0
  -18.5862    8.9802  -42.9382 N      0
  -18.7072    7.6892  -43.1352 C      0
  -18.0442    6.8051  -42.5942 O      0
  -19.7442    7.2401  -44.0632 C      0
  -19.7972    6.0071  -44.4452 N      0
  -20.7182    5.6531  -45.4042 C      0
  -20.9762    4.2701  -45.6792 C      0
  -22.0182    3.8201  -46.4332 C      0
  -22.2712    2.3160  -46.7012 C      0
  -22.9242    4.7591  -46.9902 C      0
  -24.0853    4.3011  -47.8622 C      0
  -22.6732    6.1051  -46.7582 C      0
  -21.6052    6.5761  -45.9742 C      0
  -21.5612    7.8692  -45.4552 N      0
  -20.5392    8.2982  -44.6722 C      0
  -22.2892    8.9382  -46.1912 C      0
  -21.9372    9.0602  -47.6492 C      0
  -20.5292    9.2872  -47.8362 O      0
  -22.6982   10.2302  -48.3512 C      0
  -24.1063    9.8572  -48.4952 O      0
  -22.1652   10.6812  -49.6742 C      0
  -20.7902   11.1252  -49.5232 O      0
  -22.8702   11.8082  -50.4322 C      0
  -22.8772   13.0063  -49.5902 O      0
  -23.7613   14.2853  -49.9732 P      0
  -25.2083   13.8713  -50.1482 O      5
  -23.1412   14.6943  -51.3222 O      5
  -23.4813   15.2413  -48.7942 O      5
  -17.8523    9.2887  -42.3085 H      0
  -20.2956    3.5314  -45.2584 H      0
  -22.4256    1.7997  -45.7549 H      0
  -23.1564    2.2024  -47.3253 H      0
  -21.4097    1.8884  -47.2118 H      0
  -24.7289    3.6352  -47.2893 H      0
  -24.6582    5.1678  -48.1884 H      0
  -23.6991    3.7726  -48.7326 H      0
  -23.3415    6.8374  -47.2090 H      0
  -22.0688    9.8898  -45.7098 H      0
  -23.3561    8.7325  -46.1174 H      0
  -22.2044    8.1289  -48.1465 H      0
  -20.0176    8.5275  -47.4526 H      0
  -22.6597   11.0870  -47.6802 H      0
  -24.4981    9.6911  -47.5980 H      0
  -22.1525    9.8115  -50.3294 H      0
  -20.2355   10.3749  -49.1835 H      0
  -23.8938   11.5134  -50.6588 H      0
  -22.3383   12.0150  -51.3596 H      0
  1  2  1
  1 18  2
  2  3  2
  2  4  1
  4  5  1
  5  6  2
  5  7  1
  7  8  2
  7 18  1
  8  9  1
  9 10  4
  9 16  4
 10 11  4
 11 12  1
 11 13  4
 13 14  1
 13 15  4
 15 16  4
 16 17  1
 17 18  1
 17 19  1
 19 20  1
 20 21  1
 20 22  1
 22 23  1
 22 24  1
 24 25  1
 24 26  1
 26 27  1
 27 28  1
 28 29  4
 28 30  4
 28 31  4
  4 32  1
 10 33  1
 12 34  1
 12 35  1
 12 36  1
 14 37  1
 14 38  1
 14 39  1
 15 40  1
 19 41  1
 19 42  1
 20 43  1
 21 44  1
 22 45  1
 23 46  1
 24 47  1
 25 48  1
 26 49  1
 26 50  1
M  CHG  3  29  -1  30  -1  31  -1
M  END
$$$$
