A:AO5501
  --CCDC--012419    3D                              

 45 45  0  0  0  0  0  0  0  0999 V2000
   19.5709   33.0362   16.1006 C      0
   18.7929   34.0792   15.2976 C      0
   19.9229   33.5932   17.4717 C      0
   21.0509   32.5292   15.2716 S      0
   20.8099   30.7632   15.0856 C      0
   21.0559   29.9952   16.3756 C      0
   20.6119   28.5461   16.2176 C      0
   21.9219   27.9621   15.8746 N      0
   20.0219   27.9641   17.5617 C      0
   20.0379   26.5411   17.5627 O      0
   18.5919   28.4241   17.7427 C      0
   17.6389   27.8591   17.2397 O      0
   18.4979   29.6571   18.5617 N      0
   17.2149   30.3152   18.8207 N      0
   16.5599   31.0462   17.8587 C      0
   17.0759   31.1402   16.7256 O      0
   15.2499   31.7072   18.1677 C      0
   14.5709   31.7312   19.5067 C      0
   13.2609   32.4352   19.6498 C      0
   12.6259   33.1072   18.4777 C      0
   13.3159   33.0652   17.1757 C      0
   14.5889   32.3902   17.0116 C      0
   12.6479   33.8092   15.7876 Cl     0
   20.9725   26.2206   17.4640 H      0
   19.0086   33.8480   18.0056 H      0
   20.4764   32.8445   18.0365 H      0
   20.5357   34.4858   17.3545 H      0
   19.4033   34.9728   15.1757 H      0
   18.5451   33.6725   14.3182 H      0
   17.8762   34.3351   15.8269 H      0
   21.4982   30.3963   14.3256 H      0
   19.7850   30.5839   14.7640 H      0
   15.0285   31.2406   20.3646 H      0
   15.0701   32.3801   16.0348 H      0
   19.9046   28.4376   15.3968 H      0
   12.7644   32.4583   20.6187 H      0
   19.3453   30.0557   18.9533 H      0
   11.6705   33.6190   18.5826 H      0
   16.7959   30.2283   19.7411 H      0
   20.4913   30.4584   17.1834 H      0
   22.1183   30.0221   16.6134 H      0
   22.5750   28.1268   16.6339 H      0
   21.8189   26.9631   15.7276 H      0
   20.6193   28.3261   18.3972 H      0
   18.9357   32.1622   16.2367 H      0
  1  2  1
  1  3  1
  1  4  1
  4  5  1
  5  6  1
  6  7  1
  7  8  1
  7  9  1
  9 10  1
  9 11  1
 11 12  2
 11 13  1
 13 14  1
 14 15  1
 15 16  2
 15 17  1
 17 18  4
 17 22  4
 18 19  4
 19 20  4
 20 21  4
 21 22  4
 21 23  1
 10 24  1
  3 25  1
  3 26  1
  3 27  1
  2 28  1
  2 29  1
  2 30  1
  5 31  1
  5 32  1
 18 33  1
 22 34  1
  7 35  1
 19 36  1
 13 37  1
 20 38  1
 14 39  1
  6 40  1
  6 41  1
  8 42  1
  8 43  1
  9 44  1
  1 45  1
M  END
$$$$
