B:5AP1900
  --CCDC--012419    3D                              

 43 45  0  0  0  0  0  0  0  0999 V2000
   65.2769   71.2720   68.4205 Cl     0
   66.7788   72.1130   68.2214 C      0
   67.2388   72.1640   66.9432 C      0
   68.4108   72.8250   66.7912 C      0
   69.1758   73.0030   65.1979 Cl     0
   69.0558   73.3820   67.8624 C      0
   68.5878   73.3130   69.1456 C      0
   67.4268   72.6520   69.3187 C      0
   66.8858   72.6050   70.7169 C      0
   65.8609   73.5340   71.1820 C      0
   65.4429   74.6810   70.3709 C      0
   65.0799   74.5390   69.1256 N      0
   65.2409   73.2340   72.4773 C      0
   64.2429   73.9970   72.9694 N      0
   67.2028   71.6210   71.4721 N      0
   66.6289   71.4330   72.6283 C      0
   65.6659   72.1810   73.1344 N      0
   67.1158   70.2820   73.3605 C      0
   68.1418   69.5300   72.8364 C      0
   68.6058   68.4241   73.5355 C      0
   69.6258   67.6611   73.0434 O      0
   70.9748   68.1281   73.1554 C      0
   68.0358   68.1041   74.7547 C      0
   66.9928   68.8991   75.2358 C      0
   66.5309   69.9900   74.5397 C      0
   66.3959   68.5851   76.4041 O      0
   65.9219   67.2441   76.4951 C      0
   69.9921   73.9085   67.6831 H      0
   68.5868   69.8005   71.8799 H      0
   64.7945   75.3490   68.5847 H      0
   66.7567   66.5551   76.3756 H      0
   65.4588   67.0880   77.4683 H      0
   65.1879   67.0645   75.7109 H      0
   66.7073   71.7096   66.1083 H      0
   71.2256   68.2644   74.2063 H      0
   71.6499   67.3971   72.7129 H      0
   71.0747   69.0779   72.6322 H      0
   68.3930   67.2497   75.3278 H      0
   69.1226   73.7661   69.9791 H      0
   63.8277   73.7719   73.8678 H      0
   63.9073   74.7961   72.4412 H      0
   65.4351   75.6741   70.8176 H      0
   65.7170   70.6002   74.9286 H      0
  1  2  1
  2  3  4
  2  8  4
  3  4  4
  4  5  1
  4  6  4
  6  7  4
  7  8  4
  8  9  1
  9 10  4
  9 15  4
 10 11  1
 10 13  4
 11 12  2
 13 14  1
 13 17  4
 15 16  4
 16 17  4
 16 18  1
 18 19  4
 18 25  4
 19 20  4
 20 21  1
 20 23  4
 21 22  1
 23 24  4
 24 25  4
 24 26  1
 26 27  1
  6 28  1
 19 29  1
 12 30  1
 27 31  1
 27 32  1
 27 33  1
  3 34  1
 22 35  1
 22 36  1
 22 37  1
 23 38  1
  7 39  1
 14 40  1
 14 41  1
 11 42  1
 25 43  1
M  END
$$$$
