A:LAG501
  --CCDC--012419    3D                              

 65 67  0  0  0  0  0  0  0  0999 V2000
   10.7109   17.2351   44.4620 C      0
    9.6910   17.3801   45.3219 N      0
    8.9230   16.3331   45.5509 O      0
   11.4849   18.4721   44.1470 C      0
   10.7449   19.5502   44.4850 O      0
   11.8579   18.4691   42.6510 C      0
   12.5989   19.5402   42.4190 O      0
   12.5869   17.1751   42.3031 C      0
   12.6879   16.9881   41.0201 O      0
   11.9769   15.9191   42.8070 C      0
   10.9869   15.9991   43.8560 N      0
   13.1169   15.1161   43.4980 C      0
   13.3359   15.6351   44.7119 O      0
   13.8039   17.7191   40.4981 C      0
   13.4179   17.9931   38.9932 C      0
   13.5039   16.6701   38.1462 C      0
   14.9379   16.1111   38.2552 C      0
   15.1899   15.7881   39.8272 C      0
   16.5839   15.1951   40.0682 C      0
   12.0829   18.4971   38.9132 O      0
   13.1769   16.9711   36.7733 O      0
   15.0369   14.9321   37.4863 O      0
   15.0889   17.0301   40.5931 O      0
   17.5679   15.9731   39.4472 O      0
   16.2259   14.9021   36.6623 C      0
   15.8689   14.9081   35.1334 C      0
   15.0669   13.6001   34.7984 C      0
   15.9549   12.3951   35.1324 C      0
   16.3219   12.4301   36.6823 C      0
   17.2279   11.2211   37.0483 C      0
   15.0889   16.0631   34.8544 O      0
   14.7479   13.5671   33.4235 O      0
   15.2559   11.2031   34.8444 O      0
   17.0229   13.6961   36.9743 O      0
   18.5809   11.4271   36.5583 O      0
   14.4341   15.0864   40.1768 H      0
   17.5434   16.8945   39.8166 H      0
   16.8259   15.7835   36.8837 H      0
   16.7848   14.9354   34.5449 H      0
   14.1542   13.5632   35.3913 H      0
   18.9600   12.2482   36.9683 H      0
   16.6177   14.1853   39.6618 H      0
   16.7778   15.1621   41.1392 H      0
   16.8672   12.4370   34.5391 H      0
   15.4059   12.3831   37.2694 H      0
   12.0179   19.3450   39.4261 H      0
   11.5792   15.3447   41.9717 H      0
   16.8182   10.3180   36.5983 H      0
   17.2530   11.1079   38.1311 H      0
   15.6094   16.8772   35.0832 H      0
   13.8205   17.6389   36.4185 H      0
   15.5847   13.5828   32.8891 H      0
   15.0189   11.1831   33.8803 H      0
   15.6566   16.8500   37.9039 H      0
   13.8762   18.6714   41.0215 H      0
   10.9467   18.5332   42.0582 H      0
   12.7972   15.9400   38.5378 H      0
   14.1036   18.7295   38.5766 H      0
   14.0256   15.1839   42.9017 H      0
   12.8228   14.0720   43.5940 H      0
   12.5055   15.5736   45.2530 H      0
   12.3999   18.4745   44.7376 H      0
   10.5411   19.5203   45.4564 H      0
   13.4180   19.5036   42.9792 H      0
   13.5950   17.2417   42.7097 H      0
  1  2  1
  1  4  1
  1 11  2
  2  3  2
  4  5  1
  4  6  1
  6  7  1
  6  8  1
  8  9  1
  8 10  1
  9 14  1
 10 11  1
 10 12  1
 12 13  1
 14 15  1
 14 23  1
 15 16  1
 15 20  1
 16 17  1
 16 21  1
 17 18  1
 17 22  1
 18 19  1
 18 23  1
 19 24  1
 22 25  1
 25 26  1
 25 34  1
 26 27  1
 26 31  1
 27 28  1
 27 32  1
 28 29  1
 28 33  1
 29 30  1
 29 34  1
 30 35  1
 18 36  1
 24 37  1
 25 38  1
 26 39  1
 27 40  1
 35 41  1
 19 42  1
 19 43  1
 28 44  1
 29 45  1
 20 46  1
 10 47  1
 30 48  1
 30 49  1
 31 50  1
 21 51  1
 32 52  1
 33 53  1
 17 54  1
 14 55  1
  6 56  1
 16 57  1
 15 58  1
 12 59  1
 12 60  1
 13 61  1
  4 62  1
  5 63  1
  7 64  1
  8 65  1
M  END
$$$$
