A:VIA1000
  --CCDC--012419    3D                              

 63 66  0  0  0  0  0  0  0  0999 V2000
   -0.1320   61.4630   80.1202 C      0
   -0.1690   61.7880   81.5893 C      0
   -1.2610   62.8600   81.9273 C      0
   -1.1140   63.0269   83.4053 C      0
   -1.7980   62.2760   84.3703 N      0
   -1.4140   62.6920   85.6123 N      0
   -1.9480   62.1070   86.8453 C      0
   -0.4950   63.6959   85.4403 C      0
    0.2600   64.5148   86.3463 C      0
    0.1800   64.4179   87.5493 O      0
    1.1250   65.4698   85.8163 N      0
    1.3080   65.6798   84.4423 C      0
    0.5970   64.9028   83.5203 N      0
   -0.2930   63.9239   84.0463 C      0
    2.2230   66.6977   84.0583 C      0
    1.7310   67.6506   83.0843 C      0
    2.5680   68.7536   82.6173 C      0
    3.9520   68.8556   83.1803 C      0
    4.4660   67.9066   84.1623 C      0
    3.6090   66.8017   84.6333 C      0
    4.0190   65.8258   85.6203 O      0
    5.3040   65.7988   86.2733 C      0
    5.2340   64.6188   87.2283 C      0
    2.0230   69.8265   81.5613 S      0
    2.3130   69.5955   80.2942 O      0
    0.7120   69.8565   81.6113 O      0
    2.6900   71.1544   82.1273 N      0
    1.7240   72.0824   82.9633 C      0
    0.8200   73.0523   82.1783 C      0
    1.4260   73.6813   80.9563 N      0
    1.5570   75.1512   81.2013 C      0
    2.7520   73.1403   80.4162 C      0
    3.5390   72.0874   81.2853 C      0
    0.8050   62.1721   81.8888 H      0
   -0.3867   60.8773   82.1452 H      0
    5.0502   63.7057   86.6641 H      0
    6.1772   64.5301   87.7654 H      0
    4.4245   64.7752   87.9397 H      0
    0.0919   62.3660   79.5542 H      0
    0.6386   60.7167   79.9329 H      0
   -1.0998   61.0712   79.8107 H      0
    0.7202   67.5431   82.6935 H      0
    4.5973   69.6662   82.8450 H      0
    5.4794   68.0136   84.5465 H      0
    4.1356   71.4765   80.6094 H      0
    4.1984   72.6354   81.9567 H      0
    5.4750   66.7247   86.8205 H      0
    6.1008   65.6551   85.5449 H      0
    2.3421   72.6800   83.6317 H      0
    1.0756   71.4342   83.5509 H      0
    1.6535   66.0471   86.4625 H      0
    0.5271   73.8543   82.8542 H      0
   -0.0650   72.5010   81.8641 H      0
   -2.2563   62.5007   81.6701 H      0
   -1.0669   63.7959   81.4054 H      0
    3.4120   73.9938   80.2682 H      0
    2.5421   72.6728   79.4554 H      0
   -1.7172   61.0431   86.8719 H      0
   -1.4958   62.5982   87.7056 H      0
   -3.0278   62.2451   86.8745 H      0
    2.1983   75.3194   82.0652 H      0
    1.9953   75.6275   80.3255 H      0
    0.5728   75.5766   81.3914 H      0
  1  2  1
  2  3  1
  3  4  1
  4  5  2
  4 14  1
  5  6  1
  6  7  1
  6  8  1
  8  9  1
  8 14  2
  9 10  2
  9 11  1
 11 12  1
 12 13  2
 12 15  1
 13 14  1
 15 16  4
 15 20  4
 16 17  4
 17 18  4
 17 24  1
 18 19  4
 19 20  4
 20 21  1
 21 22  1
 22 23  1
 24 25  2
 24 26  2
 24 27  1
 27 28  1
 27 33  1
 28 29  1
 29 30  1
 30 31  1
 30 32  1
 32 33  1
  2 34  1
  2 35  1
 23 36  1
 23 37  1
 23 38  1
  1 39  1
  1 40  1
  1 41  1
 16 42  1
 18 43  1
 19 44  1
 33 45  1
 33 46  1
 22 47  1
 22 48  1
 28 49  1
 28 50  1
 11 51  1
 29 52  1
 29 53  1
  3 54  1
  3 55  1
 32 56  1
 32 57  1
  7 58  1
  7 59  1
  7 60  1
 31 61  1
 31 62  1
 31 63  1
M  END
$$$$
