A:CMU1481
  --CCDC--012419    3D                              

 28 29  0  0  0  0  0  0  0  0999 V2000
   -4.8025    4.5290   30.6018 Cl     0
   -3.5895    3.2930   30.6168 C      0
   -3.1125    2.7640   29.4628 C      0
   -3.6294    3.1660   28.0788 C      0
   -4.2654    1.9450   27.4967 N      0
   -5.2945    1.1310   28.1798 C      0
   -5.8245    0.1420   27.1137 C      0
   -4.7924    0.1450   25.9447 C      0
   -3.9764    1.3960   26.2677 C      0
   -3.1164    1.9270   25.4507 N      0
   -2.1494    1.7930   29.5718 N      0
   -1.6734    1.3490   30.7558 C      0
   -0.8204    0.4700   30.7618 O      0
   -2.1455    1.8640   31.9079 N      0
   -3.0735    2.8300   31.8609 C      0
   -3.4745    3.3130   32.8939 O      0
   -2.9322    1.4901   24.5533 H      0
   -2.6289    2.7787   25.7101 H      0
   -5.2859    0.2298   24.9777 H      0
   -4.1721   -0.7500   25.9584 H      0
   -1.7755    1.3876   28.7197 H      0
   -2.8045    3.4975   27.4499 H      0
   -4.3623    3.9666   28.1680 H      0
   -6.1013    1.7660   28.5426 H      0
   -4.8557    0.5884   29.0158 H      0
   -1.8024    1.5245   32.8008 H      0
   -6.7999    0.4659   26.7537 H      0
   -5.9077   -0.8575   27.5379 H      0
  1  2  1
  2  3  2
  2 15  1
  3  4  1
  3 11  1
  4  5  1
  5  6  1
  5  9  2
  6  7  1
  7  8  1
  8  9  1
  9 10  1
 11 12  1
 12 13  2
 12 14  1
 14 15  1
 15 16  2
 10 17  1
 10 18  1
  8 19  1
  8 20  1
 11 21  1
  4 22  1
  4 23  1
  6 24  1
  6 25  1
 14 26  1
  7 27  1
  7 28  1
M  END
$$$$
