A:MRK501
  --CCDC--012419    3D                              

 35 37  0  0  0  0  0  0  0  0999 V2000
   36.3559   19.0670   60.8580 S      0
   35.7389   19.4150   59.2832 C      0
   36.3899   18.6550   58.3553 C      0
   37.3539   17.8140   58.8533 N      0
   37.4469   17.9280   60.1851 C      0
   38.3399   17.1720   60.8900 N      0
   38.6159   17.2040   62.3018 C      0
   38.0219   17.9870   63.0557 O      0
   40.4420   16.3620   64.0975 C      0
   39.6640   16.2270   62.8777 C      0
   39.8670   15.0370   62.0898 C      0
   40.7860   14.0430   62.4827 C      0
   41.5430   14.1920   63.6786 C      0
   42.4420   13.2470   64.0865 F      0
   41.3630   15.3510   64.4744 C      0
   40.9360   12.6300   61.4359 S      0
   42.7220   10.8290   62.3917 N      0
   42.5270   11.8870   61.5129 C      0
   43.5701   12.3250   60.7290 N      0
   44.5511   11.4410   61.1559 C      0
   44.0581   10.5650   62.1278 C      0
   41.7830   10.1760   63.3316 C      0
   40.3420   17.4110   64.9184 N      0
   40.9102   17.4541   65.7583 H      0
   39.6978   18.1650   64.7022 H      0
   40.9418    9.7637   62.7764 H      0
   42.2970    9.3745   63.8600 H      0
   41.4195   10.9095   64.0498 H      0
   38.8773   16.5023   60.3488 H      0
   36.1603   18.7118   57.2923 H      0
   34.9496   20.1325   59.0637 H      0
   44.6423    9.7833   62.6109 H      0
   45.5738   11.4310   60.7819 H      0
   39.2979   14.9031   61.1710 H      0
   41.9410   15.4673   65.3900 H      0
  1  2  1
  1  5  1
  2  3  2
  3  4  1
  4  5  2
  5  6  1
  6  7  1
  7  8  2
  7 10  1
  9 10  4
  9 15  4
  9 23  1
 10 11  4
 11 12  4
 12 13  4
 12 16  1
 13 14  1
 13 15  4
 16 18  1
 17 18  1
 17 21  1
 17 22  1
 18 19  2
 19 20  1
 20 21  2
 23 24  1
 23 25  1
 22 26  1
 22 27  1
 22 28  1
  6 29  1
  3 30  1
  2 31  1
 21 32  1
 20 33  1
 11 34  1
 15 35  1
M  END
$$$$
