A:YSA3001
  --CCDC--012419    3D                              

 58 61  0  0  0  0  0  0  0  0999 V2000
    8.9691  173.3414  243.2628 C      0
   10.3412  173.1444  243.3938 C      0
   10.8462  172.4764  244.5068 C      0
   12.1862  172.2824  244.6378 O      0
    9.9791  172.0025  245.4849 C      0
    8.6071  172.1984  245.3539 C      0
    8.1021  172.8704  244.2428 C      0
    6.5971  173.1084  244.1118 C      0
    5.8121  171.8105  243.9028 C      0
    6.1821  171.2025  242.6157 N      0
    4.3191  172.1305  243.8958 C      0
    3.5951  171.7435  242.9778 O      0
    3.9041  172.8604  244.9288 N      0
    2.3480  173.3094  245.1009 S      0
    1.4680  172.0995  245.2169 O      0
    1.9350  174.1194  243.9068 O      0
    2.2260  174.1504  246.3379 O      0
    1.4270  173.7494  247.4550 C      0
    2.2200  172.9664  248.5070 C      0
    1.3590  172.6984  249.6291 O      0
    2.6630  171.5885  248.0100 C      0
    3.6531  171.0435  248.8870 O      0
    1.3510  170.8225  248.1720 C      0
    1.6370  169.4235  248.2450 O      0
    0.9080  171.3335  249.5451 C      0
   -0.5610  171.2375  249.7191 N      0
   -1.4790  171.7515  248.9000 C      0
   -2.6990  171.4865  249.3591 N      0
   -2.5640  170.8025  250.4901 C      0
   -1.2040  170.6435  250.7211 C      0
   -0.7970  169.9915  251.8212 N      0
   -1.6690  169.5015  252.6872 C      0
   -2.9710  169.6365  252.4952 N      0
   -3.4541  170.2725  251.4182 C      0
   -4.7671  170.3965  251.2432 N      0
    7.9285  171.8264  246.1200 H      0
    6.4204  173.7639  243.2603 H      0
    6.2396  173.5898  245.0209 H      0
   12.6475  173.1616  244.6578 H      0
   -1.3093  168.9788  253.5722 H      0
    6.0329  171.1157  244.7118 H      0
   -5.4091  170.0065  251.9257 H      0
   -5.1268  170.8811  250.4271 H      0
    8.5748  173.8644  242.3927 H      0
    2.9996  171.6133  246.9746 H      0
    1.3988  170.7466  250.3201 H      0
    7.1760  170.9966  242.6121 H      0
    5.6581  170.3432  242.4844 H      0
    4.5786  173.1462  245.6314 H      0
    0.6151  173.1203  247.0931 H      0
    1.0139  174.6411  247.9242 H      0
    3.0854  173.5438  248.8292 H      0
   10.3735  171.4777  246.3538 H      0
    3.2730  170.9536  249.8000 H      0
    0.6323  171.0593  247.3889 H      0
    2.2272  169.2465  249.0237 H      0
   11.0197  173.5127  242.6258 H      0
   -1.2618  172.3068  247.9888 H      0
  1  2  4
  1  7  4
  2  3  4
  3  4  1
  3  5  4
  5  6  4
  6  7  4
  7  8  1
  8  9  1
  9 10  1
  9 11  1
 11 12  2
 11 13  1
 13 14  1
 14 15  2
 14 16  2
 14 17  1
 17 18  1
 18 19  1
 19 20  1
 19 21  1
 20 25  1
 21 22  1
 21 23  1
 23 24  1
 23 25  1
 25 26  1
 26 27  1
 26 30  1
 27 28  2
 28 29  1
 29 30  4
 29 34  4
 30 31  4
 31 32  4
 32 33  4
 33 34  4
 34 35  1
  6 36  1
  8 37  1
  8 38  1
  4 39  1
 32 40  1
  9 41  1
 35 42  1
 35 43  1
  1 44  1
 21 45  1
 25 46  1
 10 47  1
 10 48  1
 13 49  1
 18 50  1
 18 51  1
 19 52  1
  5 53  1
 22 54  1
 23 55  1
 24 56  1
  2 57  1
 27 58  1
M  END
$$$$
