A:5RM1003
  --CCDC--012419    3D                              

 38 39  0  0  0  0  0  0  0  0999 V2000
   50.7844    2.2009  -10.0535 O      0
   49.7645    2.4049   -9.3976 C      0
   48.9705    1.2920   -8.9666 O      0
   49.5025    3.4379   -8.5796 N      0
   48.4575    3.1389   -7.6186 C      0
   47.9965    1.7310   -8.0276 C      0
   48.0485    0.7240   -6.8727 C      0
   46.6095    1.7270   -8.6356 C      0
   45.5095    2.1739   -7.8946 C      0
   44.2275    2.1599   -8.4406 C      0
   44.0255    1.6590   -9.7295 C      0
   42.7845    1.6190  -10.3075 O      0
   41.5835    2.1169   -9.7035 C      0
   45.1155    1.2070  -10.4865 C      0
   46.3925    1.2410   -9.9255 C      0
   44.8875    0.7470  -11.7804 O      0
   45.9045    0.1950  -12.6174 C      0
   45.3625    0.0630  -14.0393 C      0
   45.1145    1.4450  -14.5953 C      0
   49.9833    4.3304   -8.6286 H      0
   49.0463    0.7231   -6.4365 H      0
   47.3205    1.0049   -6.1131 H      0
   47.8156   -0.2714   -7.2481 H      0
   45.6573    2.5372   -6.8787 H      0
   43.3848    2.5386   -7.8641 H      0
   41.6923    3.1819   -9.5036 H      0
   40.7446    1.9583  -10.3795 H      0
   41.4014    1.5889   -8.7687 H      0
   47.2392    0.8800  -10.5076 H      0
   46.1916   -0.7868  -12.2437 H      0
   46.7732    0.8517  -12.6175 H      0
   47.6404    3.8548   -7.6949 H      0
   48.8490    3.1418   -6.6025 H      0
   44.4296   -0.4986  -14.0249 H      0
   46.0896   -0.4569  -14.6615 H      0
   46.0486    2.0046  -14.6067 H      0
   44.7274    1.3640  -15.6100 H      0
   44.3886    1.9629  -13.9701 H      0
  1  2  2
  2  3  1
  2  4  1
  3  6  1
  4  5  1
  5  6  1
  6  7  1
  6  8  1
  8  9  4
  8 15  4
  9 10  4
 10 11  4
 11 12  1
 11 14  4
 12 13  1
 14 15  4
 14 16  1
 16 17  1
 17 18  1
 18 19  1
  4 20  1
  7 21  1
  7 22  1
  7 23  1
  9 24  1
 10 25  1
 13 26  1
 13 27  1
 13 28  1
 15 29  1
 17 30  1
 17 31  1
  5 32  1
  5 33  1
 18 34  1
 18 35  1
 19 36  1
 19 37  1
 19 38  1
M  END
$$$$
