A:915782
  --CCDC--012419    3D                              

 42 43  0  0  0  0  0  0  0  0999 V2000
    9.2269   20.0165   27.7683 C      0
    8.2929   19.4745   28.7073 C      0
    8.0499   20.1665   29.9213 C      0
    8.7619   21.3704   30.1503 C      0
    9.7369   21.8944   29.2313 C      0
    9.9468   21.2144   28.0393 C      0
    8.5229   22.0654   31.2743 F      0
    7.0319   19.6575   30.9073 C      0
    9.4699   19.1955   26.2212 S      0
   10.4388   17.7895   26.5142 N      0
   11.8988   17.9235   26.5072 C      0
   12.4688   18.4375   27.8463 C      0
   13.3898   19.4375   27.7233 N      0
   13.9688   19.9515   28.8733 O      0
   12.1598   17.9985   28.9173 O      0
   10.3618   19.9615   25.4202 O      0
    8.1789   18.7415   25.7312 O      0
   12.6708   16.6256   26.2002 C      0
   12.3708   15.9416   24.8222 C      0
   13.1598   14.6636   24.5622 C      0
   14.5418   14.9266   24.7002 O      0
   14.9418   15.4296   25.9932 C      0
   14.2098   16.7476   26.3052 C      0
   14.4650   17.0545   27.3184 H      0
   14.5464   17.5064   25.6004 H      0
   16.0162   15.6071   25.9927 H      0
   14.6959   14.6930   26.7567 H      0
   13.6453   19.7971   26.8091 H      0
   12.3722   15.9091   26.9640 H      0
   12.9566   14.3107   23.5522 H      0
   12.8620   13.9008   25.2801 H      0
   14.4459   19.2267   29.3560 H      0
   10.2951   22.8000   29.4643 H      0
    7.3122   18.6575   31.2349 H      0
    6.9948   20.3242   31.7675 H      0
    6.0525   19.6227   30.4325 H      0
   12.6063   16.6527   24.0318 H      0
   11.3098   15.6986   24.7876 H      0
   10.6616   21.5970   27.3122 H      0
    7.7745   18.5412   28.4922 H      0
   10.0036   16.8892   26.6877 H      0
   12.1586   18.6501   25.7388 H      0
  1  2  4
  1  6  4
  1  9  1
  2  3  4
  3  4  4
  3  8  1
  4  5  4
  4  7  1
  5  6  4
  9 10  1
  9 16  2
  9 17  2
 10 11  1
 11 12  1
 11 18  1
 12 13  1
 12 15  2
 13 14  1
 18 19  1
 18 23  1
 19 20  1
 20 21  1
 21 22  1
 22 23  1
 23 24  1
 23 25  1
 22 26  1
 22 27  1
 13 28  1
 18 29  1
 20 30  1
 20 31  1
 14 32  1
  5 33  1
  8 34  1
  8 35  1
  8 36  1
 19 37  1
 19 38  1
  6 39  1
  2 40  1
 10 41  1
 11 42  1
M  END
$$$$
