A:PH7800
  --CCDC--012419    3D                              

 43 45  0  0  0  0  0  0  0  0999 V2000
   -9.7393   55.1174   46.8956 C      0
   -8.6223   54.7644   47.5827 C      0
   -8.4653   54.7284   49.0438 N      0
   -8.1783   55.8224   49.8059 C      0
   -8.0573   56.9564   49.3458 O      0
  -11.0384   55.6114   47.3857 C      0
  -12.1674   55.7434   46.5476 C      0
  -13.4324   56.7684   48.3817 C      0
  -11.1454   56.0494   48.6948 C      0
  -12.3064   56.6134   49.1928 C      0
  -14.8125   57.5694   50.2389 C      0
  -14.5715   58.8684   50.7289 C      0
  -14.8095   59.1784   52.0970 C      0
  -15.3335   58.1954   52.9601 C      0
  -15.6205   56.9024   52.4761 C      0
  -15.3485   56.5974   51.1300 C      0
   -7.4502   54.2824   46.7996 C      0
   -7.4972   54.3884   45.5565 O      0
   -6.4912   53.7294   47.3817 O      0
   -8.0463   55.5364   51.2310 C      0
   -7.2722   56.3904   52.0430 C      0
   -7.3112   56.2444   53.4411 C      0
   -8.1283   55.2414   54.0252 C      0
   -8.8603   54.3444   53.2121 C      0
   -8.8013   54.4784   51.8130 C      0
  -13.3464   56.3604   47.0436 C      0
  -14.6125   57.2864   48.8768 O      0
  -14.0955   60.2104   49.5198 Br     0
  -12.3426   56.9407   50.2308 H      0
  -15.5529   55.5935   50.7608 H      0
   -8.1922   55.1616   55.1094 H      0
   -9.3327   53.7735   51.1753 H      0
  -14.1930   56.5182   46.3770 H      0
  -16.0476   56.1490   53.1363 H      0
  -14.5869   60.1745   52.4768 H      0
  -15.5177   58.4355   54.0062 H      0
  -12.1340   55.3731   45.5240 H      0
   -9.6632   55.0202   45.8136 H      0
   -6.7155   56.8998   54.0747 H      0
   -6.6476   57.1589   51.5900 H      0
   -9.4631   53.5584   53.6646 H      0
   -8.5772   53.8357   49.5137 H      0
  -10.2858   55.9464   49.3554 H      0
  1  2  2
  1  6  1
  2  3  1
  2 17  1
  3  4  1
  4  5  2
  4 20  1
  6  7  4
  6  9  4
  7 26  4
  8 10  4
  8 26  4
  8 27  1
  9 10  4
 11 12  4
 11 16  4
 11 27  1
 12 13  4
 12 28  1
 13 14  4
 14 15  4
 15 16  4
 17 18  4
 17 19  4
 20 21  4
 20 25  4
 21 22  4
 22 23  4
 23 24  4
 24 25  4
 10 29  1
 16 30  1
 23 31  1
 25 32  1
 26 33  1
 15 34  1
 13 35  1
 14 36  1
  7 37  1
  1 38  1
 22 39  1
 21 40  1
 24 41  1
  3 42  1
  9 43  1
M  END
$$$$
