A:AS4201
  --CCDC--012419    3D                              

 54 58  0  0  0  0  0  0  0  0999 V2000
   19.8697   73.9888   20.2972 C      0
   17.4548   73.7728   20.9302 C      0
   18.9887   72.9307   22.5792 C      0
   18.6697   70.4276   19.0572 C      0
   19.7267   70.1526   17.9402 C      0
   19.4647   69.3585   16.8631 C      0
   18.0967   68.6705   16.6741 C      0
   19.0187   69.4645   20.2522 C      0
   20.7127   75.7109   21.8682 C      0
   19.1657   75.5828   21.9052 C      0
   18.4747   76.1399   23.2042 C      0
   16.9638   76.3769   23.1632 C      0
   21.1677   74.6978   20.7902 C      0
   18.8687   74.0988   21.5272 C      0
   20.0497   72.5037   19.8512 C      0
   18.6257   71.9637   19.5142 C      0
   17.6307   72.2467   20.7482 C      0
   18.1947   71.8147   22.0142 O      0
   18.3887   73.2247   23.8402 O      0
   17.7727   68.1055   15.6361 O      0
   17.1158   68.6875   17.8752 C      0
   17.2538   70.1046   18.4592 C      0
   21.1137   70.8036   18.1622 C      0
   20.9907   72.2927   18.6042 C      0
   19.1347   76.3659   24.1892 O      0
   16.4708   76.4569   24.5032 O      0
   16.4783   75.5520   22.6438 H      0
   16.7540   77.3088   22.6403 H      0
   17.4210   73.4065   23.7120 H      0
   18.7916   76.1868   21.0798 H      0
   20.2422   69.2058   16.1160 H      0
   21.1417   75.4588   22.8369 H      0
   21.0074   76.7224   21.5927 H      0
   19.4592   74.5554   19.4627 H      0
   17.0483   70.8211   17.6653 H      0
   16.5156   70.2192   19.2516 H      0
   20.0253   69.6783   20.6086 H      0
   18.3067   69.6179   21.0618 H      0
   18.9656   68.4311   19.9129 H      0
   21.6775   70.7577   17.2316 H      0
   21.6435   70.2492   18.9353 H      0
   18.2570   72.5396   18.6667 H      0
   16.9157   77.2087   24.9753 H      0
   16.6668   71.7695   20.5777 H      0
   21.6537   75.2156   19.9646 H      0
   21.8567   73.9717   21.2192 H      0
   17.2816   74.2819   19.9832 H      0
   16.6507   74.0134   21.6241 H      0
   17.3963   67.9372   18.6130 H      0
   16.0951   68.5053   17.5421 H      0
   20.4489   71.9342   20.6892 H      0
   20.0289   72.6353   22.7083 H      0
   21.9843   72.6605   18.8561 H      0
   20.5915   72.8678   17.7700 H      0
  1 13  1
  1 14  1
  1 15  1
  2 14  1
  2 17  1
  3 14  1
  3 18  1
  3 19  1
  4  5  1
  4  8  1
  4 16  1
  4 22  1
  5  6  2
  5 23  1
  6  7  1
  7 20  2
  7 21  1
  9 10  1
  9 13  1
 10 11  1
 10 14  1
 11 12  1
 11 25  2
 12 26  1
 15 16  1
 15 24  1
 16 17  1
 17 18  1
 21 22  1
 23 24  1
 12 27  1
 12 28  1
 19 29  1
 10 30  1
  6 31  1
  9 32  1
  9 33  1
  1 34  1
 22 35  1
 22 36  1
  8 37  1
  8 38  1
  8 39  1
 23 40  1
 23 41  1
 16 42  1
 26 43  1
 17 44  1
 13 45  1
 13 46  1
  2 47  1
  2 48  1
 21 49  1
 21 50  1
 15 51  1
  3 52  1
 24 53  1
 24 54  1
M  END
$$$$
