A:BIE1218
  --CCDC--012419    3D                              

 28 29  0  0  0  0  0  0  0  0999 V2000
    5.7966   -0.3680   56.1587 O      0
    5.6386    0.7670   56.5857 C      0
    6.1115    1.0360   57.9777 C      0
    5.1706    1.5401   58.9177 C      0
    5.5155    1.6911   60.2727 C      0
    7.3755    0.6200   58.4107 C      0
    8.3745    0.2040   57.4227 N      0
    8.2295    0.8060   56.3537 O      0
    9.3155   -0.4280   57.6777 O      0
    7.7525    0.7370   59.7737 C      0
    8.9405    0.4150   60.2337 O      0
    6.8755    1.2950   60.7237 C      0
    7.1685    1.4461   62.0177 O      0
    4.7776    1.6901   55.8617 C      0
    3.7846    1.1930   55.0306 C      0
    4.9466    3.0841   56.0617 C      0
    4.0866    3.9431   55.3976 C      0
    3.1046    3.4431   54.5346 C      0
    2.9596    2.0611   54.3756 C      0
    5.7278    3.4669   56.7166 H      0
    4.1704    1.8124   58.5839 H      0
    9.6312    0.9672   59.7820 H      0
    4.1753    5.0180   55.5485 H      0
    6.5436    0.9013   62.5643 H      0
    4.7949    2.0934   60.9832 H      0
    2.4562    4.1273   53.9893 H      0
    2.1798    1.6732   53.7219 H      0
    3.6640    0.1184   54.9017 H      0
  1  2  2
  2  3  1
  2 14  1
  3  4  4
  3  6  4
  4  5  4
  5 12  4
  6  7  1
  6 10  4
  7  8  2
  7  9  2
 10 11  1
 10 12  4
 12 13  1
 14 15  4
 14 16  4
 15 19  4
 16 17  4
 17 18  4
 18 19  4
 16 20  1
  4 21  1
 11 22  1
 17 23  1
 13 24  1
  5 25  1
 18 26  1
 19 27  1
 15 28  1
M  END
$$$$
