B:ELI958
  --CCDC--012419    3D                              

 34 35  0  0  0  0  0  0  0  0999 V2000
  101.2776   13.7768   96.4850 C      0
  100.5787   14.4338   97.6340 C      0
   99.2088   15.0277   97.4610 C      0
   98.5187   14.9507   96.0550 C      0
   99.2527   14.2778   94.9080 C      0
  100.6136   13.6978   95.1230 C      0
   99.0459   15.7747   99.8359 O      0
   98.4818   15.7137   98.6809 C      0
   97.0628   15.5707   95.8240 C      0
   96.3268   16.2777   97.0900 C      0
   96.9709   16.3447   98.3969 C      0
   96.5297   15.5017   94.7040 O      0
   94.8989   16.8527   96.7350 C      0
   96.3339   16.9927   99.6119 C      0
   97.0449   18.3867   99.8589 C      0
   97.5889   19.7747   99.9649 C      0
   98.9708   19.4947   99.4519 C      0
   99.1598   20.9996   99.1789 C      0
  100.3888   21.8706   99.2019 C      0
  100.7257   22.7846   98.5399 O      0
  101.2478   21.5366  100.1719 O      0
  101.0679   14.4820   98.6057 H      0
   98.4907   21.4779   99.8927 H      0
   98.7690   21.1306   98.1709 H      0
   94.2570   16.0433   96.3904 H      0
   94.4615   17.3107   97.6209 H      0
   94.9938   17.6005   95.9490 H      0
   95.5274   16.5722  100.2107 H      0
   98.7860   14.2176   93.9260 H      0
  102.2703   13.3522   96.6276 H      0
  101.1322   13.2150   94.2960 H      0
   97.1270   20.6995  100.3072 H      0
   98.9980   18.8720   98.5589 H      0
   99.6505   19.0876  100.1991 H      0
  1  2  4
  1  6  4
  2  3  4
  3  4  4
  3  8  1
  4  5  4
  4  9  1
  5  6  4
  7  8  2
  8 11  1
  9 10  1
  9 12  2
 10 11  2
 10 13  1
 11 14  1
 14 15  2
 15 16  2
 16 17  1
 17 18  1
 18 19  1
 19 20  4
 19 21  4
  2 22  1
 18 23  1
 18 24  1
 13 25  1
 13 26  1
 13 27  1
 14 28  1
  5 29  1
  1 30  1
  6 31  1
 16 32  1
 17 33  1
 17 34  1
M  END
$$$$
