A:AMP1004
  --CCDC--012419    3D                              

 35 37  0  0  0  0  0  0  0  0999 V2000
   29.5860   43.9381   22.7312 P      0
   28.3430   44.7101   23.0712 O      5
   29.8250   42.6931   23.5742 O      5
   30.7940   44.7931   22.5052 O      5
   29.2740   43.4121   21.2341 O      0
   27.9430   43.1351   20.7551 C      0
   27.5620   44.0161   19.5550 C      0
   27.1770   43.2011   18.4369 O      0
   26.3930   44.9471   19.8330 C      0
   26.8460   46.3081   19.9430 O      0
   25.4030   44.7611   18.6900 C      0
   25.2850   45.9641   17.9189 O      0
   25.9170   43.5791   17.8569 C      0
   24.9970   42.3931   17.8359 N      0
   23.9770   42.1771   18.6860 C      0
   23.3240   41.0221   18.4259 N      0
   23.9220   40.4531   17.3849 C      0
   23.7040   39.2091   16.6229 C      0
   22.6940   38.3711   16.9679 N      0
   24.5400   38.9571   15.5878 N      0
   25.5310   39.8091   15.2568 C      0
   25.7730   40.9591   15.9258 N      0
   25.0230   41.3461   16.9909 C      0
   23.7074   42.8565   19.4932 H      0
   24.4278   44.5070   19.1028 H      0
   26.1712   46.2024   17.5396 H      0
   22.5435   37.5149   16.4439 H      0
   22.0890   38.6004   17.7499 H      0
   26.0850   43.9140   16.8344 H      0
   27.2350   43.3170   21.5623 H      0
   27.8893   42.0900   20.4538 H      0
   28.4265   44.6144   19.2712 H      0
   25.9176   44.6530   20.7676 H      0
   27.2807   46.5820   19.0933 H      0
   26.1676   39.5590   14.4094 H      0
  1  2  4
  1  3  4
  1  4  4
  1  5  1
  5  6  1
  6  7  1
  7  8  1
  7  9  1
  8 13  1
  9 10  1
  9 11  1
 11 12  1
 11 13  1
 13 14  1
 14 15  1
 14 23  1
 15 16  2
 16 17  1
 17 18  4
 17 23  4
 18 19  1
 18 20  4
 20 21  4
 21 22  4
 22 23  4
 15 24  1
 11 25  1
 12 26  1
 19 27  1
 19 28  1
 13 29  1
  6 30  1
  6 31  1
  7 32  1
  9 33  1
 10 34  1
 21 35  1
M  CHG  3   2  -1   3  -1   4  -1
M  END
$$$$
