A:7MP531
  --CCDC--012419    3D                              

 52 55  0  0  0  0  0  0  0  0999 V2000
   -0.7650    8.9120   34.6627 O      0
   -1.6310    8.0410   34.8877 C      0
   -2.5920    8.1240   35.9528 N      0
   -2.5750    9.2780   36.8489 C      0
   -3.5800    7.0960   36.1499 C      0
   -4.5140    7.1230   37.1170 N      0
   -5.3970    6.1060   37.2200 C      0
   -6.3110    6.1660   38.2111 N      0
   -5.3860    5.0410   36.3679 N      0
   -4.4700    4.9620   35.3857 C      0
   -3.5640    6.0090   35.2847 C      0
   -2.6130    6.2280   34.4926 C      0
   -1.6620    6.9720   34.1006 N      0
   -0.7630    6.8270   33.0334 C      0
   -1.0840    7.3470   31.7803 C      0
   -2.4090    8.0310   31.5512 C      0
   -0.1760    7.2250   30.7271 C      0
    1.0460    6.5970   30.9432 C      0
    0.4590    6.2070   33.2515 C      0
    1.3660    6.0800   32.2013 C      0
    2.5670    5.4710   32.3813 N      0
    3.0230    4.9250   33.5165 C      0
    2.3800    4.9250   34.5536 O      0
    4.3950    4.2870   33.4615 C      0
    4.6880    3.1220   34.1826 C      0
    5.3770    4.8680   32.6564 C      0
    6.6440    4.3040   32.5754 C      0
    6.9270    3.1480   33.3015 C      0
    5.9630    2.5480   34.1116 C      0
    6.3000    1.2910   34.8887 C      0
    6.1140    1.5190   36.1749 F      0
    7.5780    0.9680   34.7217 F      0
    5.5250    0.2770   34.4976 F      0
    5.1482    5.7686   32.0886 H      0
   -4.4406    4.1155   34.7013 H      0
    0.7081    5.8213   34.2389 H      0
   -2.4942    8.8892   32.2161 H      0
   -2.4707    8.3657   30.5168 H      0
   -3.2185    7.3318   31.7554 H      0
    3.9199    2.6605   34.8015 H      0
    7.4095    4.7609   31.9501 H      0
    7.9196    2.7050   33.2349 H      0
   -2.7348   10.1878   36.2722 H      0
   -3.3664    9.1740   37.5897 H      0
   -1.6111    9.3322   37.3528 H      0
    3.1808    5.4250   31.5743 H      0
    1.7593    6.5074   30.1251 H      0
   -0.4229    7.6191   29.7424 H      0
   -6.9909    5.4203   38.3203 H      0
   -6.3184    6.9567   38.8474 H      0
   -3.1603    6.1528   33.5542 H      0
   -2.0476    5.3120   34.6576 H      0
  1  2  2
  2  3  1
  2 13  1
  3  4  1
  3  5  1
  5  6  4
  5 11  4
  6  7  4
  7  8  1
  7  9  4
  9 10  4
 10 11  4
 11 12  1
 12 13  1
 13 14  1
 14 15  4
 14 19  4
 15 16  1
 15 17  4
 17 18  4
 18 20  4
 19 20  4
 20 21  1
 21 22  1
 22 23  2
 22 24  1
 24 25  4
 24 26  4
 25 29  4
 26 27  4
 27 28  4
 28 29  4
 29 30  1
 30 31  1
 30 32  1
 30 33  1
 26 34  1
 10 35  1
 19 36  1
 16 37  1
 16 38  1
 16 39  1
 25 40  1
 27 41  1
 28 42  1
  4 43  1
  4 44  1
  4 45  1
 21 46  1
 18 47  1
 17 48  1
  8 49  1
  8 50  1
 12 51  1
 12 52  1
M  END
$$$$
