A:ZD63015
  --CCDC--012419    3D                              

 54 57  0  0  0  0  0  0  0  0999 V2000
  -24.6920   15.9604  -13.5535 C      0
  -25.6660   17.1094  -13.8295 C      0
  -26.2060   17.7354  -12.5955 N      0
  -27.4810   18.3484  -13.0225 C      0
  -26.5500   16.8154  -11.4656 C      0
  -25.5480   15.6724  -11.2806 C      0
  -25.3120   14.9493  -12.6075 C      0
  -24.3880   13.7523  -12.4285 C      0
  -25.2470   12.7673  -11.8865 O      0
  -24.7220   11.5283  -11.6546 C      0
  -23.5000   11.1133  -12.1545 C      0
  -25.4840   10.6692  -10.8836 C      0
  -26.6941   11.1713  -10.4286 O      0
  -27.4581   10.4012   -9.4726 C      0
  -25.0120    9.3772  -10.6246 C      0
  -23.7800    8.9602  -11.1356 C      0
  -23.0230    9.8402  -11.8935 C      0
  -21.8329    9.4342  -12.4005 N      0
  -21.3729    8.2092  -12.1655 C      0
  -22.0550    7.3512  -11.4156 N      0
  -23.2520    7.6692  -10.8926 C      0
  -23.9680    6.7082  -10.1036 N      0
  -23.3730    5.4881   -9.7106 C      0
  -23.9320    4.2781  -10.0876 C      0
  -23.3430    3.0921   -9.6626 C      0
  -22.1950    3.1521   -8.8697 C      0
  -21.2330    1.6390   -8.2117 Br     0
  -21.6590    4.3551   -8.4997 C      0
  -22.2380    5.5041   -8.9147 C      0
  -21.6440    6.6222   -8.4897 F      0
  -23.7843   16.3608  -13.1043 H      0
  -24.4452   15.4672  -14.4925 H      0
  -26.4997   16.7222  -14.4132 H      0
  -25.1443   17.8734  -14.4041 H      0
  -23.7707    2.1309   -9.9440 H      0
  -27.5317   16.3852  -11.6583 H      0
  -26.5829   17.3970  -10.5455 H      0
  -26.8671   10.2540   -8.5699 H      0
  -28.3734   10.9364   -9.2241 H      0
  -27.7092    9.4333   -9.9040 H      0
  -25.6079    8.6935  -10.0218 H      0
  -22.9066   11.7964  -12.7605 H      0
  -26.2658   14.6132  -13.0113 H      0
  -23.5753   13.9841  -11.7417 H      0
  -23.9754   13.4298  -13.3833 H      0
  -20.4202    7.9039  -12.5956 H      0
  -25.9412   14.9651  -10.5517 H      0
  -24.6038   16.0779  -10.9201 H      0
  -28.1433   17.5758  -13.4104 H      0
  -27.9523   18.8365  -12.1707 H      0
  -27.2870   19.0847  -13.8011 H      0
  -24.9222    6.9089   -9.8218 H      0
  -24.8246    4.2557  -10.7111 H      0
  -20.7690    4.3871   -7.8730 H      0
  1  2  1
  1  7  1
  2  3  1
  3  4  1
  3  5  1
  5  6  1
  6  7  1
  7  8  1
  8  9  1
  9 10  1
 10 11  4
 10 12  4
 11 17  4
 12 13  1
 12 15  4
 13 14  1
 15 16  4
 16 17  4
 16 21  4
 17 18  4
 18 19  4
 19 20  4
 20 21  4
 21 22  1
 22 23  1
 23 24  4
 23 29  4
 24 25  4
 25 26  4
 26 27  1
 26 28  4
 28 29  4
 29 30  1
  1 31  1
  1 32  1
  2 33  1
  2 34  1
 25 35  1
  5 36  1
  5 37  1
 14 38  1
 14 39  1
 14 40  1
 15 41  1
 11 42  1
  7 43  1
  8 44  1
  8 45  1
 19 46  1
  6 47  1
  6 48  1
  4 49  1
  4 50  1
  4 51  1
 22 52  1
 24 53  1
 28 54  1
M  END
$$$$
