A:B681
  --CCDC--012419    3D                              

 49 50  0  0  0  0  0  0  0  0999 V2000
   29.5297   -0.1530   14.0741 C      0
   30.0737   -0.0310   12.6491 C      0
   31.1887   -0.4680   12.3651 O      0
   29.2657    0.5970   11.7971 N      0
   29.5317    0.8060   10.5071 C      0
   30.7027    0.3490    9.9051 C      0
   30.9327    0.5700    8.5500 C      0
   28.5947    1.4870    9.7361 C      0
   28.8197    1.7080    8.3800 C      0
   29.9907    1.2480    7.7820 C      0
   30.2287    1.5120    6.4680 O      0
   29.9657    0.3720    5.6340 C      0
   29.7357    0.8170    4.1980 C      0
   30.8077    1.6700    3.7880 O      0
   29.6587   -0.4110    3.2890 C      0
   28.4237    1.6000    4.1380 C      0
   27.3537    1.0420    4.3760 O      0
   28.5637    2.8921    3.8460 N      0
   27.5697    3.7741    3.7430 C      0
   26.2347    3.4431    3.9690 C      0
   27.8857    5.0911    3.4350 C      0
   26.8717    6.0421    3.3750 C      0
   25.5427    5.7061    3.6190 C      0
   24.6678    6.7112    3.5770 N      0
   23.3008    6.5662    3.9340 O      0
   25.1227    8.0192    3.2620 O      0
   25.2027    4.3801    3.9100 C      0
   23.7568    3.8991    4.1370 C      0
   23.2998    4.3271    5.3100 F      0
   22.9168    4.3101    3.1910 F      0
   23.6708    2.5721    4.1530 F      0
   25.9866    2.4086    4.2017 H      0
   28.0791    2.2414    7.7859 H      0
   27.1235    7.0733    3.1315 H      0
   30.1935    0.3687   14.7619 H      0
   28.5360    0.2898   14.1224 H      0
   29.4725   -1.2044   14.3520 H      0
   27.6775    1.8503   10.1973 H      0
   29.0781   -0.1434    5.9979 H      0
   30.8184   -0.3045    5.6693 H      0
   31.8522    0.2114    8.0897 H      0
   29.5065    3.2336    3.6887 H      0
   31.6663    1.1749    3.8484 H      0
   31.4431   -0.1848   10.4990 H      0
   28.8347   -1.0476    3.6079 H      0
   29.4940   -0.0919    2.2609 H      0
   30.5926   -0.9677    3.3511 H      0
   28.9186    5.3771    3.2421 H      0
   28.3814    0.9424   12.1562 H      0
  1  2  1
  2  3  2
  2  4  1
  4  5  1
  5  6  4
  5  8  4
  6  7  4
  7 10  4
  8  9  4
  9 10  4
 10 11  1
 11 12  1
 12 13  1
 13 14  1
 13 15  1
 13 16  1
 16 17  2
 16 18  1
 18 19  1
 19 20  4
 19 21  4
 20 27  4
 21 22  4
 22 23  4
 23 24  1
 23 27  4
 24 25  2
 24 26  2
 27 28  1
 28 29  1
 28 30  1
 28 31  1
 20 32  1
  9 33  1
 22 34  1
  1 35  1
  1 36  1
  1 37  1
  8 38  1
 12 39  1
 12 40  1
  7 41  1
 18 42  1
 14 43  1
  6 44  1
 15 45  1
 15 46  1
 15 47  1
 21 48  1
  4 49  1
M  END
$$$$
