A:TIM401
  --CCDC--012419    3D                              

 45 46  0  0  0  0  0  0  0  0999 V2000
    3.0370    1.1450   51.1356 C      0
    3.2270    1.1810   52.6535 C      0
    2.5250    0.1090   53.2535 O      0
    1.1250    0.2240   53.0405 C      0
    0.7100    0.3790   51.5666 C      0
    1.6400    1.1180   50.7506 N      0
    1.3060    1.5940   49.5057 C      0
    0.6450    0.8220   48.6278 N      0
    0.3760    1.6670   47.2479 S      0
    1.0840    3.0830   47.6629 N      0
    1.5540    2.9670   48.8948 C      0
    2.2330    3.9730   49.5397 O      0
    2.2270    5.3000   48.9378 C      0
    3.2130    6.0320   49.8597 C      0
    3.8880    7.0830   49.2317 O      0
    2.4800    6.5150   51.0986 C      0
    3.0430    7.5930   51.8776 N      0
    2.5420    7.4360   53.2665 C      0
    2.6000    8.7570   54.0204 C      0
    1.0670    6.9630   53.2125 C      0
    3.4040    6.3930   54.0074 C      0
    0.7692    1.0963   53.5867 H      0
    0.6470   -0.6713   53.4353 H      0
    2.8464    2.1242   53.0426 H      0
    4.2871    1.0935   52.8867 H      0
    4.4398    6.7284   54.0303 H      0
    3.0375    6.2770   55.0263 H      0
    3.3432    5.4374   53.4888 H      0
    3.5243    0.2534   50.7439 H      0
    3.5007    2.0311   50.7047 H      0
    1.9837    9.4945   53.5084 H      0
    2.2277    8.6133   55.0337 H      0
    3.6301    9.1082   54.0586 H      0
    1.0104    6.0097   52.6890 H      0
    0.6867    6.8437   54.2259 H      0
    0.4675    7.7032   52.6846 H      0
    3.2300    7.7527   48.9085 H      0
    1.2364    5.7512   48.9698 H      0
    2.5817    5.2758   47.9084 H      0
    2.3832    5.6587   51.7645 H      0
    1.4911    6.8383   50.7769 H      0
    2.7468    8.4872   51.4996 H      0
    3.9601    5.3082   50.1818 H      0
   -0.2493    0.8935   51.5372 H      0
    0.6012   -0.6166   51.1389 H      0
  1  2  1
  1  6  1
  2  3  1
  3  4  1
  4  5  1
  5  6  1
  6  7  1
  7  8  2
  7 11  1
  8  9  1
  9 10  1
 10 11  2
 11 12  1
 12 13  1
 13 14  1
 14 15  1
 14 16  1
 16 17  1
 17 18  1
 18 19  1
 18 20  1
 18 21  1
  4 22  1
  4 23  1
  2 24  1
  2 25  1
 21 26  1
 21 27  1
 21 28  1
  1 29  1
  1 30  1
 19 31  1
 19 32  1
 19 33  1
 20 34  1
 20 35  1
 20 36  1
 15 37  1
 13 38  1
 13 39  1
 16 40  1
 16 41  1
 17 42  1
 14 43  1
  5 44  1
  5 45  1
M  END
$$$$
