B:IMN701
  --CCDC--012419    3D                              

 40 42  0  0  0  0  0  0  0  0999 V2000
   69.9863   14.9389    9.5341 C      0
   69.8073   13.9699   10.5481 C      0
   70.9464   13.3749   11.1771 C      0
   72.2754   13.7469   10.7941 C      0
   72.4624   14.7399    9.7561 C      0
   71.3254   15.3289    9.1291 C      0
   74.7216   13.3739   10.9091 C      0
   68.3253   13.8279   10.7101 C      0
   67.7452   14.6759    9.8401 C      0
   68.3513   16.1799    8.1281 C      0
   68.8663   17.6199    8.0611 C      0
   68.8053   18.3079    6.8320 C      0
   69.2673   19.6459    6.7170 C      0
   69.7883   20.2969    7.8251 C      0
   69.8573   19.6239    9.0651 C      0
   69.3913   18.2699    9.1861 C      0
   66.2842   14.8529    9.6781 C      0
   67.5922   12.8439   11.6271 C      0
   68.2012   12.7919   12.9981 C      0
   68.6573   15.3439    9.1241 N      0
   73.3775   13.1239   11.4221 O      0
   67.6142   15.7529    7.2340 O      0
   69.0703   13.5349   13.3091 O      0
   67.7522   11.9620   13.8771 O      0
   70.3163   21.9029    7.6830 Cl     0
   70.8009   12.6294   11.9574 H      0
   73.4668   15.0352    9.4560 H      0
   71.4613   16.0725    8.3451 H      0
   74.9406   14.4390   10.9689 H      0
   75.4461   12.8203   11.5044 H      0
   74.7803   13.0490    9.8713 H      0
   68.3972   17.8051    5.9565 H      0
   69.2124   20.1606    5.7589 H      0
   70.2665   20.1347    9.9354 H      0
   69.4457   17.7536   10.1434 H      0
   65.8520   15.1848   10.6209 H      0
   66.0920   15.5988    8.9082 H      0
   65.8339   13.9054    9.3859 H      0
   67.6378   11.8501   11.1843 H      0
   66.5522   13.1544   11.7160 H      0
  1  2  4
  1  6  4
  1 20  1
  2  3  4
  2  8  1
  3  4  4
  4  5  4
  4 21  1
  5  6  4
  7 21  1
  8  9  2
  8 18  1
  9 17  1
  9 20  1
 10 11  1
 10 20  1
 10 22  2
 11 12  4
 11 16  4
 12 13  4
 13 14  4
 14 15  4
 14 25  1
 15 16  4
 18 19  1
 19 23  4
 19 24  4
  3 26  1
  5 27  1
  6 28  1
  7 29  1
  7 30  1
  7 31  1
 12 32  1
 13 33  1
 15 34  1
 16 35  1
 17 36  1
 17 37  1
 17 38  1
 18 39  1
 18 40  1
M  END
$$$$
